<?xml version="1.0" encoding="UTF-8"?>

<!-- generated on 2023-10-09 14:51:45.970526 by osmWebWizard.py UNKNOWN
<configuration>
    <net-file value="/opt/homebrew/Cellar/sumo/1.18.0/share/sumo/tools/2023-10-09-14-51-36/osm.net.xml.gz"/>
    <output-trip-file value="/opt/homebrew/Cellar/sumo/1.18.0/share/sumo/tools/2023-10-09-14-51-36/osm.truck.trips.xml"/>
    <route-file value="/opt/homebrew/Cellar/sumo/1.18.0/share/sumo/tools/2023-10-09-14-51-36/osm.truck.rou.xml"/>
    <prefix value="truck"/>
    <trip-attributes value="departLane=&quot;best&quot;"/>
    <fringe-start-attributes value="departSpeed=&quot;max&quot;"/>
    <vehicle-class value="truck"/>
    <fringe-factor value="5"/>
    <vclass value="truck"/>
    <via-edge-types value="highway.motorway,highway.motorway_link,highway.trunk_link,highway.primary_link,highway.secondary_link,highway.tertiary_link"/>
    <min-distance value="600.0"/>
    <min-distance.fringe value="10.0"/>
    <remove-loops value="True"/>
    <validate value="True"/>
    <insertion-density value="8.0"/>
</configuration>
-->

<!-- generated on 2023-10-09 14:51:45 by Eclipse SUMO duarouter Version 1.18.0
<configuration xmlns:xsi="http://www.w3.org/2001/XMLSchema-instance" xsi:noNamespaceSchemaLocation="http://sumo.dlr.de/xsd/duarouterConfiguration.xsd">

    <input>
        <net-file value="/opt/homebrew/Cellar/sumo/1.18.0/share/sumo/tools/2023-10-09-14-51-36/osm.net.xml.gz"/>
        <route-files value="/opt/homebrew/Cellar/sumo/1.18.0/share/sumo/tools/2023-10-09-14-51-36/osm.truck.trips.xml"/>
    </input>

    <output>
        <output-file value="/opt/homebrew/Cellar/sumo/1.18.0/share/sumo/tools/2023-10-09-14-51-36/osm.truck.trips.xml.tmp"/>
        <alternatives-output value="NUL"/>
        <write-trips value="true"/>
    </output>

    <processing>
        <remove-loops value="true"/>
    </processing>

    <time>
        <begin value="0.0"/>
        <end value="3600.0"/>
    </time>

    <report>
        <no-warnings value="true"/>
        <ignore-errors value="true"/>
        <no-step-log value="true"/>
    </report>

</configuration>
-->

<routes xmlns:xsi="http://www.w3.org/2001/XMLSchema-instance" xsi:noNamespaceSchemaLocation="http://sumo.dlr.de/xsd/routes_file.xsd">
    <vType id="truck_truck" vClass="truck"/>
    <trip id="truck0" type="truck_truck" depart="0.00" departLane="best" departSpeed="max" from="29981307#0" to="29981122#10"/>
    <trip id="truck1" type="truck_truck" depart="9.65" departLane="best" from="1033722535#1" to="1183718459"/>
    <trip id="truck2" type="truck_truck" depart="19.31" departLane="best" departSpeed="max" from="-621980074#1" to="29980990#0"/>
    <trip id="truck3" type="truck_truck" depart="28.96" departLane="best" from="-223727787#7" to="-29980168#0"/>
    <trip id="truck4" type="truck_truck" depart="38.62" departLane="best" from="30189700#2" to="29981279#1"/>
    <trip id="truck6" type="truck_truck" depart="57.92" departLane="best" from="-29981201#3" to="1190889945#1"/>
    <trip id="truck7" type="truck_truck" depart="67.58" departLane="best" from="29981201#0" to="-726509434#8"/>
    <trip id="truck8" type="truck_truck" depart="77.23" departLane="best" departSpeed="max" from="-233560941#2" to="-53879357#1"/>
    <trip id="truck10" type="truck_truck" depart="96.54" departLane="best" from="-726511410#4" to="-29981307#0"/>
    <trip id="truck11" type="truck_truck" depart="106.19" departLane="best" from="-29981340#1" to="744259180#0"/>
    <trip id="truck12" type="truck_truck" depart="115.85" departLane="best" from="-29980975#0" to="29980968#4"/>
    <trip id="truck13" type="truck_truck" depart="125.50" departLane="best" from="-29980975#11" to="29981279#1"/>
    <trip id="truck14" type="truck_truck" depart="135.16" departLane="best" departSpeed="max" from="-29980968#4" to="1068534420#1"/>
    <trip id="truck15" type="truck_truck" depart="144.81" departLane="best" departSpeed="max" from="996549294#0" to="29980990#1"/>
    <trip id="truck16" type="truck_truck" depart="154.46" departLane="best" departSpeed="max" from="40945525#0" to="29981398#1"/>
    <trip id="truck17" type="truck_truck" depart="164.12" departLane="best" departSpeed="max" from="-40945440" to="-40945525#0"/>
    <trip id="truck18" type="truck_truck" depart="173.77" departLane="best" from="-29981122#10" to="750803290#0"/>
    <trip id="truck20" type="truck_truck" depart="193.08" departLane="best" departSpeed="max" from="-744259179#0" to="222664371"/>
    <trip id="truck21" type="truck_truck" depart="202.73" departLane="best" from="29981307#4" to="30276468#0"/>
    <trip id="truck22" type="truck_truck" depart="212.39" departLane="best" from="299530125" to="726509434#5"/>
    <trip id="truck23" type="truck_truck" depart="222.04" departLane="best" from="997391288#0" to="261463325"/>
    <trip id="truck24" type="truck_truck" depart="231.70" departLane="best" from="-223727787#6" to="1190889946#1"/>
    <trip id="truck25" type="truck_truck" depart="241.35" departLane="best" from="-30067029#2" to="1190889943#3"/>
    <trip id="truck26" type="truck_truck" depart="251.00" departLane="best" departSpeed="max" from="-203857384#1" to="1068534420#1"/>
    <trip id="truck27" type="truck_truck" depart="260.66" departLane="best" from="997391287#1" to="106384423#2"/>
    <trip id="truck28" type="truck_truck" depart="270.31" departLane="best" from="990057389" to="-53879357#0"/>
    <trip id="truck29" type="truck_truck" depart="279.97" departLane="best" from="-29981340#1" to="29980990#1"/>
    <trip id="truck30" type="truck_truck" depart="289.62" departLane="best" from="-295143807#3" to="1190978817#1"/>
    <trip id="truck32" type="truck_truck" depart="308.93" departLane="best" departSpeed="max" from="-744259179#0" to="621980074#1"/>
    <trip id="truck33" type="truck_truck" depart="318.58" departLane="best" departSpeed="max" from="-35742163" to="29980990#1"/>
    <trip id="truck34" type="truck_truck" depart="328.24" departLane="best" from="29981356#5" to="295143807#3"/>
    <trip id="truck35" type="truck_truck" depart="337.89" departLane="best" departSpeed="max" from="-1068534420#1" to="731962224#0"/>
    <trip id="truck36" type="truck_truck" depart="347.54" departLane="best" from="726509434#6" to="-38584626#1"/>
    <trip id="truck37" type="truck_truck" depart="357.20" departLane="best" from="38584626#4" to="-223099575#2"/>
    <trip id="truck38" type="truck_truck" depart="366.85" departLane="best" from="726509434#6" to="816420282#0"/>
    <trip id="truck39" type="truck_truck" depart="376.51" departLane="best" departSpeed="max" from="-203857384#1" to="-29981359#3"/>
    <trip id="truck40" type="truck_truck" depart="386.16" departLane="best" from="-1190889943#1" to="299530125"/>
    <trip id="truck41" type="truck_truck" depart="395.81" departLane="best" from="29981307#4" to="621980074#1"/>
    <trip id="truck42" type="truck_truck" depart="405.47" departLane="best" from="852995462#0" to="-29981307#0"/>
    <trip id="truck43" type="truck_truck" depart="415.12" departLane="best" from="258375156" to="29981279#1"/>
    <trip id="truck44" type="truck_truck" depart="424.78" departLane="best" from="-29981099#2" to="731962213"/>
    <trip id="truck45" type="truck_truck" depart="434.43" departLane="best" from="997385613#0" to="29981078#1"/>
    <trip id="truck46" type="truck_truck" depart="444.08" departLane="best" from="1068342552#0" to="29394195#0"/>
    <trip id="truck47" type="truck_truck" depart="453.74" departLane="best" from="-29980162#1" to="-29981340#1"/>
    <trip id="truck48" type="truck_truck" depart="463.39" departLane="best" departSpeed="max" from="-621980074#1" to="29980934#0"/>
    <trip id="truck49" type="truck_truck" depart="473.05" departLane="best" from="29981201#2" to="-29981340#0"/>
    <trip id="truck50" type="truck_truck" depart="482.70" departLane="best" from="29981201#1" to="-726511408#1"/>
    <trip id="truck51" type="truck_truck" depart="492.36" departLane="best" departSpeed="max" from="-29981201#5" to="29981099#7"/>
    <trip id="truck52" type="truck_truck" depart="502.01" departLane="best" from="1190834288#2" to="-30000954#2"/>
    <trip id="truck53" type="truck_truck" depart="511.66" departLane="best" departSpeed="max" from="-233560941#2" to="1190978817#1"/>
    <trip id="truck54" type="truck_truck" depart="521.32" departLane="best" departSpeed="max" from="29981306#0" to="29981110#0"/>
    <trip id="truck55" type="truck_truck" depart="530.97" departLane="best" departSpeed="max" from="996549294#0" to="-29980168#0"/>
    <trip id="truck56" type="truck_truck" depart="540.63" departLane="best" from="648762768#1" to="30276468#1"/>
    <trip id="truck57" type="truck_truck" depart="550.28" departLane="best" departSpeed="max" from="-29980990#1" to="203857390#4"/>
    <trip id="truck58" type="truck_truck" depart="559.93" departLane="best" departSpeed="max" from="-29981279#2" to="731962212#0"/>
    <trip id="truck59" type="truck_truck" depart="569.59" departLane="best" departSpeed="max" from="1068534421#0" to="-53879357#1"/>
    <trip id="truck60" type="truck_truck" depart="579.24" departLane="best" from="997391288#1" to="38584626#4"/>
    <trip id="truck61" type="truck_truck" depart="588.90" departLane="best" from="-1004129377#0" to="-29981307#1"/>
    <trip id="truck62" type="truck_truck" depart="598.55" departLane="best" from="726511411#5" to="996549291#1"/>
    <trip id="truck63" type="truck_truck" depart="608.20" departLane="best" from="29981307#4" to="-30000954#2"/>
    <trip id="truck64" type="truck_truck" depart="617.86" departLane="best" from="1097021899#1" to="1190889944#0"/>
    <trip id="truck65" type="truck_truck" depart="627.51" departLane="best" departSpeed="max" from="916411017" to="997385613#0"/>
    <trip id="truck66" type="truck_truck" depart="637.17" departLane="best" from="-29980968#1" to="726511409#1"/>
    <trip id="truck67" type="truck_truck" depart="646.82" departLane="best" departSpeed="max" from="-1190978817#1" to="29980931#2"/>
    <trip id="truck68" type="truck_truck" depart="656.47" departLane="best" from="223099573#1" to="40945525#2"/>
    <trip id="truck69" type="truck_truck" depart="666.13" departLane="best" departSpeed="max" from="-29980968#4" to="852995462#0"/>
    <trip id="truck71" type="truck_truck" depart="685.44" departLane="best" departSpeed="max" from="29980168#0" to="29981110#1"/>
    <trip id="truck72" type="truck_truck" depart="695.09" departLane="best" departSpeed="max" from="-29981201#5" to="-29980910#0"/>
    <trip id="truck73" type="truck_truck" depart="704.74" departLane="best" from="726511410#4" to="30276468#0"/>
    <trip id="truck74" type="truck_truck" depart="714.40" departLane="best" departSpeed="max" from="29980168#0" to="29980975#0"/>
    <trip id="truck76" type="truck_truck" depart="733.71" departLane="best" departSpeed="max" from="-29981201#5" to="110043959#2"/>
    <trip id="truck77" type="truck_truck" depart="743.36" departLane="best" from="29981099#2" to="726511410#1"/>
    <trip id="truck78" type="truck_truck" depart="753.01" departLane="best" from="203983268#0" to="222664371"/>
    <trip id="truck79" type="truck_truck" depart="762.67" departLane="best" from="203983268#0" to="-29981307#1"/>
    <trip id="truck81" type="truck_truck" depart="781.98" departLane="best" from="726509434#9" to="650725363#1"/>
    <trip id="truck82" type="truck_truck" depart="791.63" departLane="best" from="-726511410#1" to="-29981099#1"/>
    <trip id="truck85" type="truck_truck" depart="820.59" departLane="best" from="-30276468#0" to="726511410#1"/>
    <trip id="truck87" type="truck_truck" depart="839.90" departLane="best" departSpeed="max" from="-261463325" to="29980162#0"/>
    <trip id="truck88" type="truck_truck" depart="849.55" departLane="best" from="29981215#2" to="-29981306#4"/>
    <trip id="truck89" type="truck_truck" depart="859.21" departLane="best" departSpeed="max" from="40945525#0" to="-29980162#0"/>
    <trip id="truck90" type="truck_truck" depart="868.86" departLane="best" from="-1004129377#7" to="29981395#1"/>
    <trip id="truck92" type="truck_truck" depart="888.17" departLane="best" from="-203983271#0" to="650725363#1"/>
    <trip id="truck93" type="truck_truck" depart="897.82" departLane="best" from="-731962213" to="299438852#1"/>
    <trip id="truck94" type="truck_truck" depart="907.48" departLane="best" from="726511411#5" to="-29981307#0"/>
    <trip id="truck95" type="truck_truck" depart="917.13" departLane="best" departSpeed="max" from="-29981279#2" to="-29980168#0"/>
    <trip id="truck96" type="truck_truck" depart="926.79" departLane="best" from="-29980968#1" to="731962224#0"/>
    <trip id="truck97" type="truck_truck" depart="936.44" departLane="best" from="1068534421#3" to="29981279#2"/>
    <trip id="truck98" type="truck_truck" depart="946.09" departLane="best" departSpeed="max" from="30189700#0" to="53879364#0"/>
    <trip id="truck99" type="truck_truck" depart="955.75" departLane="best" from="30189700#4" to="-40945525#0"/>
    <trip id="truck100" type="truck_truck" depart="965.40" departLane="best" from="-29981122#5" to="35742158#2"/>
    <trip id="truck101" type="truck_truck" depart="975.06" departLane="best" from="-29980968#2" to="110043959#2"/>
    <trip id="truck103" type="truck_truck" depart="994.36" departLane="best" departSpeed="max" from="919352324" to="-38584626#8"/>
    <trip id="truck104" type="truck_truck" depart="1004.02" departLane="best" departSpeed="max" from="-261463325" to="1190978817#1"/>
    <trip id="truck106" type="truck_truck" depart="1023.33" departLane="best" from="29980874#0" to="261463325"/>
    <trip id="truck107" type="truck_truck" depart="1032.98" departLane="best" from="-744259179#1" to="29980916#1"/>
    <trip id="truck108" type="truck_truck" depart="1042.63" departLane="best" departSpeed="max" from="-29981279#2" to="29981210#1"/>
    <trip id="truck109" type="truck_truck" depart="1052.29" departLane="best" from="-1004129377#6" to="731962220#1"/>
    <trip id="truck110" type="truck_truck" depart="1061.94" departLane="best" from="258375156" to="29981237#1"/>
    <trip id="truck111" type="truck_truck" depart="1071.60" departLane="best" departSpeed="max" from="29981307#0" to="29981107#0"/>
    <trip id="truck113" type="truck_truck" depart="1090.90" departLane="best" from="29981262#1" to="-726511410#1"/>
    <trip id="truck114" type="truck_truck" depart="1100.56" departLane="best" from="38584626#5" to="117178128#0"/>
    <trip id="truck115" type="truck_truck" depart="1110.21" departLane="best" from="990057389" to="726511409#0"/>
    <trip id="truck116" type="truck_truck" depart="1119.87" departLane="best" from="29980168#3" to="1190889943#2"/>
    <trip id="truck118" type="truck_truck" depart="1139.17" departLane="best" from="731962213" to="29980970#0"/>
    <trip id="truck119" type="truck_truck" depart="1148.83" departLane="best" from="29980975#5" to="996550071#2"/>
    <trip id="truck120" type="truck_truck" depart="1158.48" departLane="best" departSpeed="max" from="1068534421#0" to="-29981307#1"/>
    <trip id="truck121" type="truck_truck" depart="1168.14" departLane="best" from="30189666#2" to="29981122#11"/>
    <trip id="truck122" type="truck_truck" depart="1177.79" departLane="best" from="29981099#4" to="-29981340#1"/>
    <trip id="truck123" type="truck_truck" depart="1187.44" departLane="best" from="-29981099#1" to="-1068534421#3"/>
    <trip id="truck124" type="truck_truck" depart="1197.10" departLane="best" departSpeed="max" from="-29981237#1" to="223600261"/>
    <trip id="truck126" type="truck_truck" depart="1216.41" departLane="best" from="-203983271#0" to="-30000954#2"/>
    <trip id="truck127" type="truck_truck" depart="1226.06" departLane="best" departSpeed="max" from="-261463325" to="1190889944#1"/>
    <trip id="truck130" type="truck_truck" depart="1255.02" departLane="best" from="726511410#4" to="29980968#4"/>
    <trip id="truck131" type="truck_truck" depart="1264.68" departLane="best" from="726511411#4" to="-29981307#1"/>
    <trip id="truck132" type="truck_truck" depart="1274.33" departLane="best" departSpeed="max" from="-29981237#1" to="29980990#1"/>
    <trip id="truck133" type="truck_truck" depart="1283.98" departLane="best" from="29981359#1" to="29394197#0"/>
    <trip id="truck134" type="truck_truck" depart="1293.64" departLane="best" from="-29980931#0" to="488954863#1"/>
    <trip id="truck135" type="truck_truck" depart="1303.29" departLane="best" from="-29981359#4" to="816420282#0"/>
    <trip id="truck136" type="truck_truck" depart="1312.95" departLane="best" departSpeed="max" from="261463327" to="-29980970#1"/>
    <trip id="truck137" type="truck_truck" depart="1322.60" departLane="best" from="-29981201#4" to="-223727787#2"/>
    <trip id="truck138" type="truck_truck" depart="1332.25" departLane="best" from="-997385613#1" to="295143807#6"/>
    <trip id="truck141" type="truck_truck" depart="1361.22" departLane="best" from="53879362" to="29981383#3"/>
    <trip id="truck142" type="truck_truck" depart="1370.87" departLane="best" from="-726509434#0" to="29981356#3"/>
    <trip id="truck144" type="truck_truck" depart="1390.18" departLane="best" departSpeed="max" from="261463327" to="29980944#6"/>
    <trip id="truck145" type="truck_truck" depart="1399.83" departLane="best" from="1068342551#1" to="1155385176"/>
    <trip id="truck146" type="truck_truck" depart="1409.49" departLane="best" departSpeed="max" from="-621980074#1" to="29981122#12"/>
    <trip id="truck147" type="truck_truck" depart="1419.14" departLane="best" from="-990068611#1" to="-29981099#8"/>
    <trip id="truck148" type="truck_truck" depart="1428.80" departLane="best" from="-1183718459" to="29980931#0"/>
    <trip id="truck149" type="truck_truck" depart="1438.45" departLane="best" departSpeed="max" from="-110043959#2" to="29981072#1"/>
    <trip id="truck150" type="truck_truck" depart="1448.10" departLane="best" from="-1190889945#0" to="1068534420#1"/>
    <trip id="truck152" type="truck_truck" depart="1467.41" departLane="best" from="29981356#4" to="1068534420#1"/>
    <trip id="truck153" type="truck_truck" depart="1477.07" departLane="best" departSpeed="max" from="-29981279#2" to="-29394197#0"/>
    <trip id="truck154" type="truck_truck" depart="1486.72" departLane="best" from="997391288#1" to="1004129377#7"/>
    <trip id="truck155" type="truck_truck" depart="1496.37" departLane="best" from="29980975#11" to="-30000954#2"/>
    <trip id="truck156" type="truck_truck" depart="1506.03" departLane="best" from="29980975#2" to="29981356#4"/>
    <trip id="truck157" type="truck_truck" depart="1515.68" departLane="best" from="878405103#1" to="-29981306#0"/>
    <trip id="truck158" type="truck_truck" depart="1525.34" departLane="best" departSpeed="max" from="-1068534420#1" to="29980975#8"/>
    <trip id="truck159" type="truck_truck" depart="1534.99" departLane="best" from="-29981122#9" to="29981383#6"/>
    <trip id="truck160" type="truck_truck" depart="1544.64" departLane="best" from="-29980970#2" to="29980968#2"/>
    <trip id="truck161" type="truck_truck" depart="1554.30" departLane="best" from="-30276468#2" to="89603720#1"/>
    <trip id="truck162" type="truck_truck" depart="1563.95" departLane="best" departSpeed="max" from="916411017" to="110043959#2"/>
    <trip id="truck163" type="truck_truck" depart="1573.61" departLane="best" from="29981210#6" to="-261463327"/>
    <trip id="truck164" type="truck_truck" depart="1583.26" departLane="best" from="-488954863#0" to="29980944#6"/>
    <trip id="truck165" type="truck_truck" depart="1592.91" departLane="best" from="-29980162#1" to="996549291#1"/>
    <trip id="truck166" type="truck_truck" depart="1602.57" departLane="best" from="-29981398#1" to="-997391287#1"/>
    <trip id="truck167" type="truck_truck" depart="1612.22" departLane="best" from="1055065714#0" to="1068483522"/>
    <trip id="truck168" type="truck_truck" depart="1621.88" departLane="best" from="223099575#2" to="-990068611#1"/>
    <trip id="truck169" type="truck_truck" depart="1631.53" departLane="best" departSpeed="max" from="40945525#0" to="35742163"/>
    <trip id="truck170" type="truck_truck" depart="1641.18" departLane="best" departSpeed="max" from="-261463325" to="1033722536"/>
    <trip id="truck172" type="truck_truck" depart="1660.49" departLane="best" from="29981210#0" to="1190978817#1"/>
    <trip id="truck173" type="truck_truck" depart="1670.15" departLane="best" from="29981306#4" to="996550071#0"/>
    <trip id="truck174" type="truck_truck" depart="1679.80" departLane="best" from="1068342551#1" to="29981279#2"/>
    <trip id="truck175" type="truck_truck" depart="1689.45" departLane="best" from="29981359#0" to="40945525#2"/>
    <trip id="truck176" type="truck_truck" depart="1699.11" departLane="best" from="38584626#1" to="295143807#5"/>
    <trip id="truck177" type="truck_truck" depart="1708.76" departLane="best" from="726509434#9" to="-30000954#2"/>
    <trip id="truck178" type="truck_truck" depart="1718.42" departLane="best" from="117178128#1" to="29980968#4"/>
    <trip id="truck179" type="truck_truck" depart="1728.07" departLane="best" from="-29981122#11" to="30189666#3"/>
    <trip id="truck180" type="truck_truck" depart="1737.72" departLane="best" departSpeed="max" from="-621980074#1" to="650725363#1"/>
    <trip id="truck181" type="truck_truck" depart="1747.38" departLane="best" departSpeed="max" from="-1068534419" to="816420282#1"/>
    <trip id="truck182" type="truck_truck" depart="1757.03" departLane="best" from="-223727787#2" to="29981237#1"/>
    <trip id="truck183" type="truck_truck" depart="1766.69" departLane="best" from="203857390#3" to="-29981359#1"/>
    <trip id="truck184" type="truck_truck" depart="1776.34" departLane="best" from="203857390#4" to="30189666#0"/>
    <trip id="truck185" type="truck_truck" depart="1785.99" departLane="best" from="299438852#2" to="223600260#3"/>
    <trip id="truck186" type="truck_truck" depart="1795.65" departLane="best" from="-223727787#6" to="1190889944#1"/>
    <trip id="truck187" type="truck_truck" depart="1805.30" departLane="best" from="29981307#4" to="-916411017"/>
    <trip id="truck188" type="truck_truck" depart="1814.96" departLane="best" from="29981201#2" to="-40945525#0"/>
    <trip id="truck189" type="truck_truck" depart="1824.61" departLane="best" departSpeed="max" from="-29981279#2" to="-29980910#0"/>
    <trip id="truck190" type="truck_truck" depart="1834.26" departLane="best" departSpeed="max" from="-29981072#1" to="-29980910#0"/>
    <trip id="truck191" type="truck_truck" depart="1843.92" departLane="best" from="258375154#0" to="29981359#6"/>
    <trip id="truck192" type="truck_truck" depart="1853.57" departLane="best" departSpeed="max" from="-29980990#1" to="-29981307#4"/>
    <trip id="truck193" type="truck_truck" depart="1863.23" departLane="best" from="-1190889946#1" to="29981237#1"/>
    <trip id="truck194" type="truck_truck" depart="1872.88" departLane="best" from="30000952#1" to="-29980168#0"/>
    <trip id="truck195" type="truck_truck" depart="1882.53" departLane="best" departSpeed="max" from="-29981072#1" to="-29981359#1"/>
    <trip id="truck196" type="truck_truck" depart="1892.19" departLane="best" from="-29980975#8" to="-1068534421#0"/>
    <trip id="truck197" type="truck_truck" depart="1901.84" departLane="best" from="-29981122#8" to="-29980916#2"/>
    <trip id="truck198" type="truck_truck" depart="1911.50" departLane="best" from="726509434#1" to="-29980910#2"/>
    <trip id="truck199" type="truck_truck" depart="1921.15" departLane="best" from="1190834288#0" to="203857384#1"/>
    <trip id="truck200" type="truck_truck" depart="1930.80" departLane="best" departSpeed="max" from="-29980990#1" to="-203857390#4"/>
    <trip id="truck202" type="truck_truck" depart="1950.11" departLane="best" from="-1190889946#1" to="-29980975#6"/>
    <trip id="truck203" type="truck_truck" depart="1959.77" departLane="best" from="29981359#0" to="29980968#1"/>
    <trip id="truck204" type="truck_truck" depart="1969.42" departLane="best" from="223600264#3" to="-203983268#0"/>
    <trip id="truck205" type="truck_truck" depart="1979.07" departLane="best" departSpeed="max" from="1068534421#0" to="-53879357#0"/>
    <trip id="truck206" type="truck_truck" depart="1988.73" departLane="best" departSpeed="max" from="996549294#0" to="-726511411#1"/>
    <trip id="truck207" type="truck_truck" depart="1998.38" departLane="best" departSpeed="max" from="29980910#0" to="29980968#4"/>
    <trip id="truck208" type="truck_truck" depart="2008.04" departLane="best" departSpeed="max" from="29981307#0" to="816420282#1"/>
    <trip id="truck209" type="truck_truck" depart="2017.69" departLane="best" from="-29981107#0" to="-29981307#0"/>
    <trip id="truck210" type="truck_truck" depart="2027.34" departLane="best" from="-1004129377#6" to="-203983268#0"/>
    <trip id="truck211" type="truck_truck" depart="2037.00" departLane="best" from="29981201#2" to="203983271#2"/>
    <trip id="truck212" type="truck_truck" depart="2046.65" departLane="best" from="-29981122#13" to="-731962213"/>
    <trip id="truck213" type="truck_truck" depart="2056.31" departLane="best" from="53879364#1" to="-223727787#7"/>
    <trip id="truck214" type="truck_truck" depart="2065.96" departLane="best" departSpeed="max" from="29981340#0" to="29980875#1"/>
    <trip id="truck215" type="truck_truck" depart="2075.61" departLane="best" from="-30276468#0" to="-29980916#0"/>
    <trip id="truck217" type="truck_truck" depart="2094.92" departLane="best" from="-203983271#0" to="-261463327"/>
    <trip id="truck218" type="truck_truck" depart="2104.58" departLane="best" from="-1190834288#1" to="1190978817#1"/>
    <trip id="truck219" type="truck_truck" depart="2114.23" departLane="best" departSpeed="max" from="-40945525#2" to="-385114873"/>
    <trip id="truck221" type="truck_truck" depart="2133.54" departLane="best" from="38584626#4" to="-29980916#0"/>
    <trip id="truck222" type="truck_truck" depart="2143.19" departLane="best" from="89603720#1" to="996550071#0"/>
    <trip id="truck223" type="truck_truck" depart="2152.85" departLane="best" from="29981099#4" to="-40945525#0"/>
    <trip id="truck224" type="truck_truck" depart="2162.50" departLane="best" departSpeed="max" from="-744259179#0" to="29981122#7"/>
    <trip id="truck225" type="truck_truck" depart="2172.15" departLane="best" from="29981099#1" to="488954863#0"/>
    <trip id="truck227" type="truck_truck" depart="2191.46" departLane="best" departSpeed="max" from="-40945525#2" to="975415077"/>
    <trip id="truck228" type="truck_truck" depart="2201.12" departLane="best" departSpeed="max" from="996549294#0" to="29981078#4"/>
    <trip id="truck229" type="truck_truck" depart="2210.77" departLane="best" departSpeed="max" from="261463327" to="-1190834288#0"/>
    <trip id="truck230" type="truck_truck" depart="2220.42" departLane="best" from="29981356#3" to="-29981306#4"/>
    <trip id="truck232" type="truck_truck" depart="2239.73" departLane="best" from="-29980162#1" to="990068611#0"/>
    <trip id="truck234" type="truck_truck" depart="2259.04" departLane="best" from="29394195#0" to="-29980162#1"/>
    <trip id="truck235" type="truck_truck" depart="2268.70" departLane="best" from="223138926#0" to="726511410#5"/>
    <trip id="truck236" type="truck_truck" depart="2278.35" departLane="best" from="38584626#10" to="233560941#2"/>
    <trip id="truck237" type="truck_truck" depart="2288.00" departLane="best" from="29981215#2" to="261463325"/>
    <trip id="truck238" type="truck_truck" depart="2297.66" departLane="best" from="990093511#0" to="-30000954#2"/>
    <trip id="truck239" type="truck_truck" depart="2307.31" departLane="best" from="28906993#3" to="1068534420#1"/>
    <trip id="truck240" type="truck_truck" depart="2316.97" departLane="best" from="-744259179#3" to="261463325"/>
    <trip id="truck241" type="truck_truck" depart="2326.62" departLane="best" from="-29981395#1" to="223600264#3"/>
    <trip id="truck242" type="truck_truck" depart="2336.27" departLane="best" from="223138926#1" to="35742163"/>
    <trip id="truck243" type="truck_truck" depart="2345.93" departLane="best" from="30000952#1" to="726511410#0"/>
    <trip id="truck244" type="truck_truck" depart="2355.58" departLane="best" from="29980162#0" to="996550071#0"/>
    <trip id="truck245" type="truck_truck" depart="2365.24" departLane="best" from="28906993#3" to="295143807#6"/>
    <trip id="truck246" type="truck_truck" depart="2374.89" departLane="best" from="295143807#2" to="-29981395#0"/>
    <trip id="truck247" type="truck_truck" depart="2384.54" departLane="best" from="29981383#7" to="1190889945#0"/>
    <trip id="truck249" type="truck_truck" depart="2403.85" departLane="best" from="30189700#5" to="-1068534421#1"/>
    <trip id="truck250" type="truck_truck" depart="2413.51" departLane="best" from="-1183718459" to="258375155#0"/>
    <trip id="truck251" type="truck_truck" depart="2423.16" departLane="best" from="29980162#2" to="621980074#1"/>
    <trip id="truck252" type="truck_truck" depart="2432.81" departLane="best" from="726509434#2" to="203857384#1"/>
    <trip id="truck253" type="truck_truck" depart="2442.47" departLane="best" from="-223727787#3" to="203983272#1"/>
    <trip id="truck254" type="truck_truck" depart="2452.12" departLane="best" from="-29981279#1" to="117178128#1"/>
    <trip id="truck256" type="truck_truck" depart="2471.43" departLane="best" from="29980975#11" to="40945525#2"/>
    <trip id="truck258" type="truck_truck" depart="2490.74" departLane="best" from="1068342551#1" to="29981359#3"/>
    <trip id="truck259" type="truck_truck" depart="2500.39" departLane="best" from="726509434#1" to="-1190834288#3"/>
    <trip id="truck260" type="truck_truck" depart="2510.05" departLane="best" from="-744259179#3" to="997391288#0"/>
    <trip id="truck261" type="truck_truck" depart="2519.70" departLane="best" from="29981307#4" to="1190978817#1"/>