<?xml version="1.0" encoding="UTF-8"?>

<!-- generated on 2023-10-09 14:51:43.332112 by osmWebWizard.py UNKNOWN
<configuration>
    <net-file value="/opt/homebrew/Cellar/sumo/1.18.0/share/sumo/tools/2023-10-09-14-51-36/osm.net.xml.gz"/>
    <output-trip-file value="/opt/homebrew/Cellar/sumo/1.18.0/share/sumo/tools/2023-10-09-14-51-36/osm.motorcycle.trips.xml"/>
    <route-file value="/opt/homebrew/Cellar/sumo/1.18.0/share/sumo/tools/2023-10-09-14-51-36/osm.motorcycle.rou.xml"/>
    <prefix value="motorcycle"/>
    <trip-attributes value="departLane=&quot;best&quot;"/>
    <fringe-start-attributes value="departSpeed=&quot;max&quot;"/>
    <vehicle-class value="motorcycle"/>
    <fringe-factor value="2"/>
    <vclass value="motorcycle"/>
    <via-edge-types value="highway.motorway,highway.motorway_link,highway.trunk_link,highway.primary_link,highway.secondary_link,highway.tertiary_link"/>
    <max-distance value="1200.0"/>
    <remove-loops value="True"/>
    <validate value="True"/>
    <insertion-density value="4.0"/>
</configuration>
-->

<!-- generated on 2023-10-09 14:51:43 by Eclipse SUMO duarouter Version 1.18.0
<configuration xmlns:xsi="http://www.w3.org/2001/XMLSchema-instance" xsi:noNamespaceSchemaLocation="http://sumo.dlr.de/xsd/duarouterConfiguration.xsd">

    <input>
        <net-file value="/opt/homebrew/Cellar/sumo/1.18.0/share/sumo/tools/2023-10-09-14-51-36/osm.net.xml.gz"/>
        <route-files value="/opt/homebrew/Cellar/sumo/1.18.0/share/sumo/tools/2023-10-09-14-51-36/osm.motorcycle.trips.xml"/>
    </input>

    <output>
        <output-file value="/opt/homebrew/Cellar/sumo/1.18.0/share/sumo/tools/2023-10-09-14-51-36/osm.motorcycle.trips.xml.tmp"/>
        <alternatives-output value="NUL"/>
        <write-trips value="true"/>
    </output>

    <processing>
        <remove-loops value="true"/>
    </processing>

    <time>
        <begin value="0.0"/>
        <end value="3600.0"/>
    </time>

    <report>
        <no-warnings value="true"/>
        <ignore-errors value="true"/>
        <no-step-log value="true"/>
    </report>

</configuration>
-->

<routes xmlns:xsi="http://www.w3.org/2001/XMLSchema-instance" xsi:noNamespaceSchemaLocation="http://sumo.dlr.de/xsd/routes_file.xsd">
    <vType id="motorcycle_motorcycle" vClass="motorcycle"/>
    <trip id="motorcycle0" type="motorcycle_motorcycle" depart="0.00" departLane="best" from="-29980975#2" to="1183718459"/>
    <trip id="motorcycle1" type="motorcycle_motorcycle" depart="19.31" departLane="best" from="-385114873" to="-29981359#0"/>
    <trip id="motorcycle2" type="motorcycle_motorcycle" depart="38.62" departLane="best" from="29981307#1" to="29981122#12"/>
    <trip id="motorcycle3" type="motorcycle_motorcycle" depart="57.92" departLane="best" from="-29980975#0" to="-295143807#5"/>
    <trip id="motorcycle4" type="motorcycle_motorcycle" depart="77.23" departLane="best" from="1068534421#3" to="1190834288#2"/>
    <trip id="motorcycle5" type="motorcycle_motorcycle" depart="96.54" departLane="best" departSpeed="max" from="-29981201#5" to="117178131"/>
    <trip id="motorcycle6" type="motorcycle_motorcycle" depart="115.85" departLane="best" from="-1155385176" to="29981279#1"/>
    <trip id="motorcycle7" type="motorcycle_motorcycle" depart="135.16" departLane="best" from="29980975#9" to="295143807#4"/>
    <trip id="motorcycle10" type="motorcycle_motorcycle" depart="193.08" departLane="best" from="-726511410#5" to="29980990#0"/>
    <trip id="motorcycle12" type="motorcycle_motorcycle" depart="231.70" departLane="best" from="-29394197#0" to="-29980162#2"/>
    <trip id="motorcycle13" type="motorcycle_motorcycle" depart="251.00" departLane="best" from="-488954863#1" to="29980944#5"/>
    <trip id="motorcycle14" type="motorcycle_motorcycle" depart="270.31" departLane="best" from="30189700#6" to="-29981306#1"/>
    <trip id="motorcycle15" type="motorcycle_motorcycle" depart="289.62" departLane="best" from="-990093511#0" to="299438852#2"/>
    <trip id="motorcycle16" type="motorcycle_motorcycle" depart="308.93" departLane="best" from="38584626#10" to="29980970#1"/>
    <trip id="motorcycle17" type="motorcycle_motorcycle" depart="328.24" departLane="best" from="725073808" to="29980874#4"/>
    <trip id="motorcycle18" type="motorcycle_motorcycle" depart="347.54" departLane="best" from="29981210#0" to="203857384#0"/>
    <trip id="motorcycle19" type="motorcycle_motorcycle" depart="366.85" departLane="best" departSpeed="max" from="-29981279#2" to="-726509434#5"/>
    <trip id="motorcycle20" type="motorcycle_motorcycle" depart="386.16" departLane="best" from="-223727787#5" to="29981395#1"/>
    <trip id="motorcycle21" type="motorcycle_motorcycle" depart="405.47" departLane="best" from="-295143807#6" to="-53879357#1"/>
    <trip id="motorcycle22" type="motorcycle_motorcycle" depart="424.78" departLane="best" from="29980975#10" to="104797980#0"/>
    <trip id="motorcycle24" type="motorcycle_motorcycle" depart="463.39" departLane="best" from="-30276468#0" to="750776353"/>
    <trip id="motorcycle25" type="motorcycle_motorcycle" depart="482.70" departLane="best" from="29980975#8" to="29980968#0"/>
    <trip id="motorcycle26" type="motorcycle_motorcycle" depart="502.01" departLane="best" departSpeed="max" from="-29980990#1" to="-29981306#1"/>
    <trip id="motorcycle27" type="motorcycle_motorcycle" depart="521.32" departLane="best" from="29980975#7" to="1068342552#1"/>
    <trip id="motorcycle28" type="motorcycle_motorcycle" depart="540.63" departLane="best" from="945674250#0" to="29980990#1"/>
    <trip id="motorcycle29" type="motorcycle_motorcycle" depart="559.93" departLane="best" from="295143807#2" to="29981122#4"/>
    <trip id="motorcycle30" type="motorcycle_motorcycle" depart="579.24" departLane="best" departSpeed="max" from="40945525#0" to="-30000952#1"/>
    <trip id="motorcycle31" type="motorcycle_motorcycle" depart="598.55" departLane="best" from="29981306#1" to="-1190834288#3"/>
    <trip id="motorcycle32" type="motorcycle_motorcycle" depart="617.86" departLane="best" from="-726509434#0" to="-38584626#7"/>
    <trip id="motorcycle33" type="motorcycle_motorcycle" depart="637.17" departLane="best" from="29981201#0" to="816420282#0"/>
    <trip id="motorcycle34" type="motorcycle_motorcycle" depart="656.47" departLane="best" from="726509434#5" to="-726511411#5"/>
    <trip id="motorcycle36" type="motorcycle_motorcycle" depart="695.09" departLane="best" from="731962224#2" to="222664371"/>
    <trip id="motorcycle37" type="motorcycle_motorcycle" depart="714.40" departLane="best" from="-30067029#2" to="-30067029#2"/>
    <trip id="motorcycle38" type="motorcycle_motorcycle" depart="733.71" departLane="best" from="-295143807#5" to="-38584626#4"/>
    <trip id="motorcycle39" type="motorcycle_motorcycle" depart="753.01" departLane="best" from="29980168#2" to="726511409#1"/>
    <trip id="motorcycle40" type="motorcycle_motorcycle" depart="772.32" departLane="best" from="104797980#1" to="-29981340#0"/>
    <trip id="motorcycle41" type="motorcycle_motorcycle" depart="791.63" departLane="best" from="997391288#0" to="261463325"/>
    <trip id="motorcycle42" type="motorcycle_motorcycle" depart="810.94" departLane="best" departSpeed="max" from="-261463325" to="203857390#3"/>
    <trip id="motorcycle43" type="motorcycle_motorcycle" depart="830.25" departLane="best" from="-29980162#2" to="-29980975#4"/>
    <trip id="motorcycle44" type="motorcycle_motorcycle" depart="849.55" departLane="best" from="30189666#2" to="1190834288#3"/>
    <trip id="motorcycle45" type="motorcycle_motorcycle" depart="868.86" departLane="best" from="-203983271#0" to="1068483522"/>
    <trip id="motorcycle46" type="motorcycle_motorcycle" depart="888.17" departLane="best" from="997391287#1" to="1055065714#1"/>
    <trip id="motorcycle47" type="motorcycle_motorcycle" depart="907.48" departLane="best" from="-29981122#13" to="29394205#2"/>
    <trip id="motorcycle48" type="motorcycle_motorcycle" depart="926.79" departLane="best" from="-30276468#0" to="29980990#1"/>
    <trip id="motorcycle49" type="motorcycle_motorcycle" depart="946.09" departLane="best" from="29980168#2" to="1190889946#1"/>
    <trip id="motorcycle51" type="motorcycle_motorcycle" depart="984.71" departLane="best" from="726509434#5" to="-38584626#5"/>
    <trip id="motorcycle52" type="motorcycle_motorcycle" depart="1004.02" departLane="best" from="223600262#5" to="29981122#14"/>
    <trip id="motorcycle53" type="motorcycle_motorcycle" depart="1023.33" departLane="best" from="731962223#0" to="655241413#0"/>
    <trip id="motorcycle54" type="motorcycle_motorcycle" depart="1042.63" departLane="best" from="-488954863#0" to="29980990#1"/>
    <trip id="motorcycle55" type="motorcycle_motorcycle" depart="1061.94" departLane="best" from="29980916#1" to="-29980975#8"/>
    <trip id="motorcycle56" type="motorcycle_motorcycle" depart="1081.25" departLane="best" from="29981359#6" to="89603720#1"/>
    <trip id="motorcycle57" type="motorcycle_motorcycle" depart="1100.56" departLane="best" from="30000952#0" to="29394203#2"/>
    <trip id="motorcycle59" type="motorcycle_motorcycle" depart="1139.17" departLane="best" from="726509434#6" to="-38584626#2"/>
    <trip id="motorcycle60" type="motorcycle_motorcycle" depart="1158.48" departLane="best" from="726509434#6" to="816420282#3"/>
    <trip id="motorcycle61" type="motorcycle_motorcycle" depart="1177.79" departLane="best" departSpeed="max" from="-233560941#2" to="223727787#0"/>
    <trip id="motorcycle62" type="motorcycle_motorcycle" depart="1197.10" departLane="best" from="1068342552#1" to="29981383#2"/>
    <trip id="motorcycle63" type="motorcycle_motorcycle" depart="1216.41" departLane="best" from="29981383#3" to="-29980943#1"/>
    <trip id="motorcycle64" type="motorcycle_motorcycle" depart="1235.71" departLane="best" from="30010063#1" to="299438852#0"/>
    <trip id="motorcycle65" type="motorcycle_motorcycle" depart="1255.02" departLane="best" from="30067029#1" to="725073808"/>
    <trip id="motorcycle66" type="motorcycle_motorcycle" depart="1274.33" departLane="best" from="29394200#0" to="-29981306#1"/>
    <trip id="motorcycle67" type="motorcycle_motorcycle" depart="1293.64" departLane="best" from="29981122#2" to="-726511411#3"/>
    <trip id="motorcycle68" type="motorcycle_motorcycle" depart="1312.95" departLane="best" from="997385613#0" to="29981078#2"/>
    <trip id="motorcycle69" type="motorcycle_motorcycle" depart="1332.25" departLane="best" from="117178128#1" to="28906993#3"/>
    <trip id="motorcycle70" type="motorcycle_motorcycle" depart="1351.56" departLane="best" from="-29980874#2" to="-29981359#1"/>
    <trip id="motorcycle71" type="motorcycle_motorcycle" depart="1370.87" departLane="best" from="-726511410#4" to="29980931#0"/>
    <trip id="motorcycle72" type="motorcycle_motorcycle" depart="1390.18" departLane="best" from="29981306#1" to="-29981340#0"/>
    <trip id="motorcycle73" type="motorcycle_motorcycle" depart="1409.49" departLane="best" from="-223600264#2" to="29980975#6"/>
    <trip id="motorcycle74" type="motorcycle_motorcycle" depart="1428.80" departLane="best" from="648762768#1" to="223727787#5"/>
    <trip id="motorcycle75" type="motorcycle_motorcycle" depart="1448.10" departLane="best" from="816420282#0" to="29980874#0"/>
    <trip id="motorcycle76" type="motorcycle_motorcycle" depart="1467.41" departLane="best" from="-203983271#2" to="30010063#1"/>
    <trip id="motorcycle78" type="motorcycle_motorcycle" depart="1506.03" departLane="best" from="-295143807#4" to="1190889945#0"/>
    <trip id="motorcycle79" type="motorcycle_motorcycle" depart="1525.34" departLane="best" from="29981306#4" to="29981122#10"/>
    <trip id="motorcycle81" type="motorcycle_motorcycle" depart="1563.95" departLane="best" from="1055065714#1" to="-916411017"/>
    <trip id="motorcycle82" type="motorcycle_motorcycle" depart="1583.26" departLane="best" from="725073808" to="30276468#1"/>
    <trip id="motorcycle83" type="motorcycle_motorcycle" depart="1602.57" departLane="best" from="29981107#2" to="-203983268#0"/>
    <trip id="motorcycle84" type="motorcycle_motorcycle" depart="1621.88" departLane="best" from="-29981359#6" to="731962224#0"/>
    <trip id="motorcycle85" type="motorcycle_motorcycle" depart="1641.18" departLane="best" from="29394205#1" to="-203983268#0"/>
    <trip id="motorcycle86" type="motorcycle_motorcycle" depart="1660.49" departLane="best" from="997391288#1" to="38584626#5"/>
    <trip id="motorcycle88" type="motorcycle_motorcycle" depart="1699.11" departLane="best" from="53879357#0" to="-29981099#8"/>
    <trip id="motorcycle89" type="motorcycle_motorcycle" depart="1718.42" departLane="best" from="996550071#2" to="-29981307#1"/>
    <trip id="motorcycle90" type="motorcycle_motorcycle" depart="1737.72" departLane="best" from="1055065714#0" to="1068342552#1"/>
    <trip id="motorcycle91" type="motorcycle_motorcycle" depart="1757.03" departLane="best" from="-30067029#2" to="203983272#0"/>
    <trip id="motorcycle92" type="motorcycle_motorcycle" depart="1776.34" departLane="best" from="1190889944#1" to="1190889943#1"/>
    <trip id="motorcycle93" type="motorcycle_motorcycle" depart="1795.65" departLane="best" from="89603720#1" to="-997391287#1"/>
    <trip id="motorcycle94" type="motorcycle_motorcycle" depart="1814.96" departLane="best" from="29505849" to="29981237#1"/>
    <trip id="motorcycle95" type="motorcycle_motorcycle" depart="1834.26" departLane="best" from="-29980975#10" to="726511408#0"/>
    <trip id="motorcycle96" type="motorcycle_motorcycle" depart="1853.57" departLane="best" from="975415076" to="29980875#2"/>
    <trip id="motorcycle97" type="motorcycle_motorcycle" depart="1872.88" departLane="best" from="29394203#0" to="29981356#3"/>
    <trip id="motorcycle98" type="motorcycle_motorcycle" depart="1892.19" departLane="best" from="-203857390#3" to="-29980916#0"/>
    <trip id="motorcycle100" type="motorcycle_motorcycle" depart="1930.80" departLane="best" from="223727787#5" to="-29981122#7"/>
    <trip id="motorcycle101" type="motorcycle_motorcycle" depart="1950.11" departLane="best" from="29980874#2" to="29981122#11"/>
    <trip id="motorcycle102" type="motorcycle_motorcycle" depart="1969.42" departLane="best" from="29981306#5" to="-29980916#0"/>
    <trip id="motorcycle103" type="motorcycle_motorcycle" depart="1988.73" departLane="best" from="726511410#0" to="30067029#1"/>
    <trip id="motorcycle104" type="motorcycle_motorcycle" depart="2008.04" departLane="best" from="29980874#2" to="-29980970#2"/>
    <trip id="motorcycle105" type="motorcycle_motorcycle" depart="2027.34" departLane="best" from="258375156" to="744259180#2"/>
    <trip id="motorcycle106" type="motorcycle_motorcycle" depart="2046.65" departLane="best" from="29981122#5" to="29981237#1"/>
    <trip id="motorcycle107" type="motorcycle_motorcycle" depart="2065.96" departLane="best" from="29981307#2" to="1097021899#0"/>
    <trip id="motorcycle108" type="motorcycle_motorcycle" depart="2085.27" departLane="best" from="-29981107#2" to="726511409#0"/>
    <trip id="motorcycle109" type="motorcycle_motorcycle" depart="2104.58" departLane="best" from="-726509434#1" to="-29981359#0"/>
    <trip id="motorcycle110" type="motorcycle_motorcycle" depart="2123.88" departLane="best" from="-223600264#2" to="222664371"/>
    <trip id="motorcycle111" type="motorcycle_motorcycle" depart="2143.19" departLane="best" from="997391288#1" to="-997391287#1"/>
    <trip id="motorcycle112" type="motorcycle_motorcycle" depart="2162.50" departLane="best" from="-223727787#0" to="-29981307#1"/>
    <trip id="motorcycle113" type="motorcycle_motorcycle" depart="2181.81" departLane="best" from="-30067029#2" to="744259180#1"/>
    <trip id="motorcycle114" type="motorcycle_motorcycle" depart="2201.12" departLane="best" from="-726509434#9" to="-726509434#0"/>
    <trip id="motorcycle116" type="motorcycle_motorcycle" depart="2239.73" departLane="best" from="38584626#3" to="29981210#0"/>
    <trip id="motorcycle117" type="motorcycle_motorcycle" depart="2259.04" departLane="best" from="-29980931#1" to="996549291#1"/>
    <trip id="motorcycle119" type="motorcycle_motorcycle" depart="2297.66" departLane="best" from="34148315#0" to="726511409#0"/>
    <trip id="motorcycle120" type="motorcycle_motorcycle" depart="2316.97" departLane="best" from="29981099#4" to="750803290#1"/>
    <trip id="motorcycle121" type="motorcycle_motorcycle" depart="2336.27" departLane="best" departSpeed="max" from="-29980931#2" to="-29980910#0"/>
    <trip id="motorcycle122" type="motorcycle_motorcycle" depart="2355.58" departLane="best" from="-29980162#1" to="299438852#2"/>
    <trip id="motorcycle123" type="motorcycle_motorcycle" depart="2374.89" departLane="best" departSpeed="max" from="-35742163" to="29980944#5"/>
    <trip id="motorcycle124" type="motorcycle_motorcycle" depart="2394.20" departLane="best" from="1068342551#1" to="-29981306#1"/>
    <trip id="motorcycle125" type="motorcycle_motorcycle" depart="2413.51" departLane="best" from="-29980975#0" to="-38584626#5"/>
    <trip id="motorcycle126" type="motorcycle_motorcycle" depart="2432.81" departLane="best" from="223138926#1" to="726511411#0"/>
    <trip id="motorcycle127" type="motorcycle_motorcycle" depart="2452.12" departLane="best" from="-488954863#0" to="-29980162#0"/>
    <trip id="motorcycle128" type="motorcycle_motorcycle" depart="2471.43" departLane="best" from="-1004129377#7" to="29981398#0"/>
    <trip id="motorcycle129" type="motorcycle_motorcycle" depart="2490.74" departLane="best" from="29980975#11" to="-38584626#4"/>
    <trip id="motorcycle130" type="motorcycle_motorcycle" depart="2510.05" departLane="best" departSpeed="max" from="29981340#0" to="299438852#2"/>
    <trip id="motorcycle131" type="motorcycle_motorcycle" depart="2529.35" departLane="best" from="1097021899#2" to="-1033751593"/>
    <trip id="motorcycle132" type="motorcycle_motorcycle" depart="2548.66" departLane="best" from="-223727787#2" to="-726509434#2"/>
    <trip id="motorcycle133" type="motorcycle_motorcycle" depart="2567.97" departLane="best" from="731962210#0" to="295143807#5"/>
    <trip id="motorcycle134" type="motorcycle_motorcycle" depart="2587.28" departLane="best" from="38584626#4" to="-29980910#2"/>
    <trip id="motorcycle135" type="motorcycle_motorcycle" depart="2606.59" departLane="best" from="-29980970#0" to="29980943#1"/>
    <trip id="motorcycle136" type="motorcycle_motorcycle" depart="2625.89" departLane="best" departSpeed="max" from="-650725363#1" to="726511410#0"/>
    <trip id="motorcycle137" type="motorcycle_motorcycle" depart="2645.20" departLane="best" from="726511411#3" to="-29981307#0"/>
    <trip id="motorcycle138" type="motorcycle_motorcycle" depart="2664.51" departLane="best" from="-29981359#6" to="-29980168#2"/>
    <trip id="motorcycle139" type="motorcycle_motorcycle" depart="2683.82" departLane="best" from="30000952#1" to="726509434#4"/>
    <trip id="motorcycle140" type="motorcycle_motorcycle" depart="2703.13" departLane="best" from="106384423#2" to="29980970#2"/>
    <trip id="motorcycle142" type="motorcycle_motorcycle" depart="2741.74" departLane="best" from="725074923#2" to="990093508#0"/>
    <trip id="motorcycle143" type="motorcycle_motorcycle" depart="2761.05" departLane="best" from="30189700#8" to="-726509434#1"/>
    <trip id="motorcycle144" type="motorcycle_motorcycle" depart="2780.36" departLane="best" from="110043965" to="-29981307#1"/>
    <trip id="motorcycle145" type="motorcycle_motorcycle" depart="2799.67" departLane="best" from="30189700#3" to="648762768#0"/>
    <trip id="motorcycle146" type="motorcycle_motorcycle" depart="2818.97" departLane="best" from="30189700#8" to="38584626#7"/>
    <trip id="motorcycle147" type="motorcycle_motorcycle" depart="2838.28" departLane="best" from="30067029#1" to="-29980874#0"/>
    <trip id="motorcycle148" type="motorcycle_motorcycle" depart="2857.59" departLane="best" from="726509434#1" to="38584624#0"/>
    <trip id="motorcycle149" type="motorcycle_motorcycle" depart="2876.90" departLane="best" from="-1190889946#1" to="-726511410#4"/>
    <trip id="motorcycle150" type="motorcycle_motorcycle" depart="2896.21" departLane="best" departSpeed="max" from="30189700#0" to="-29981359#4"/>
    <trip id="motorcycle152" type="motorcycle_motorcycle" depart="2934.82" departLane="best" from="726511408#0" to="648762768#0"/>
    <trip id="motorcycle153" type="motorcycle_motorcycle" depart="2954.13" departLane="best" from="975415075" to="655241413#0"/>
    <trip id="motorcycle154" type="motorcycle_motorcycle" depart="2973.44" departLane="best" from="29980975#4" to="1097021899#2"/>
    <trip id="motorcycle155" type="motorcycle_motorcycle" depart="2992.75" departLane="best" from="990093511#0" to="29394205#2"/>
    <trip id="motorcycle156" type="motorcycle_motorcycle" depart="3012.05" departLane="best" from="816420282#2" to="-29980910#0"/>
    <trip id="motorcycle157" type="motorcycle_motorcycle" depart="3031.36" departLane="best" from="975415077" to="29981122#14"/>
    <trip id="motorcycle158" type="motorcycle_motorcycle" depart="3050.67" departLane="best" departSpeed="max" from="919352324" to="-38584626#6"/>
    <trip id="motorcycle159" type="motorcycle_motorcycle" depart="3069.98" departLane="best" from="-29980162#2" to="1190889946#1"/>
    <trip id="motorcycle160" type="motorcycle_motorcycle" depart="3089.29" departLane="best" from="29981306#3" to="726511411#4"/>
    <trip id="motorcycle161" type="motorcycle_motorcycle" depart="3108.59" departLane="best" from="29980910#2" to="28906993#0"/>
    <trip id="motorcycle162" type="motorcycle_motorcycle" depart="3127.90" departLane="best" from="-1004129377#6" to="-29980874#4"/>
    <trip id="motorcycle163" type="motorcycle_motorcycle" depart="3147.21" departLane="best" from="-29981395#2" to="29981210#3"/>
    <trip id="motorcycle164" type="motorcycle_motorcycle" depart="3166.52" departLane="best" from="-1004129377#6" to="731962224#2"/>
    <trip id="motorcycle165" type="motorcycle_motorcycle" depart="3185.83" departLane="best" from="-29394197#0" to="29981262#0"/>
    <trip id="motorcycle166" type="motorcycle_motorcycle" depart="3205.14" departLane="best" departSpeed="max" from="29981340#0" to="29981110#0"/>
    <trip id="motorcycle167" type="motorcycle_motorcycle" depart="3224.44" departLane="best" from="-816420282#3" to="223727787#5"/>
    <trip id="motorcycle168" type="motorcycle_motorcycle" depart="3243.75" departLane="best" from="29981099#4" to="816420282#2"/>
    <trip id="motorcycle169" type="motorcycle_motorcycle" depart="3263.06" departLane="best" from="29981262#2" to="726511409#1"/>
    <trip id="motorcycle170" type="motorcycle_motorcycle" depart="3282.37" departLane="best" departSpeed="max" from="-650725363#1" to="117178126"/>
    <trip id="motorcycle171" type="motorcycle_motorcycle" depart="3301.68" departLane="best" from="29394203#2" to="-726511408#0"/>
    <trip id="motorcycle172" type="motorcycle_motorcycle" depart="3320.98" departLane="best" from="29980916#0" to="-1190834288#2"/>
    <trip id="motorcycle173" type="motorcycle_motorcycle" depart="3340.29" departLane="best" from="-816420282#3" to="29981122#12"/>
    <trip id="motorcycle174" type="motorcycle_motorcycle" depart="3359.60" departLane="best" from="-488954863#1" to="-295143807#6"/>
    <trip id="motorcycle175" type="motorcycle_motorcycle" depart="3378.91" departLane="best" from="-1004129377#0" to="-726509434#2"/>
    <trip id="motorcycle176" type="motorcycle_motorcycle" depart="3398.22" departLane="best" from="110043965" to="29980875#2"/>
    <trip id="motorcycle178" type="motorcycle_motorcycle" depart="3436.83" departLane="best" from="1190834288#0" to="-29981307#1"/>
    <trip id="motorcycle179" type="motorcycle_motorcycle" depart="3456.14" departLane="best" from="203983271#2" to="726511410#1"/>
    <trip id="motorcycle180" type="motorcycle_motorcycle" depart="3475.45" departLane="best" departSpeed="max" from="30189700#0" to="-29981107#2"/>
    <trip id="motorcycle181" type="motorcycle_motorcycle" depart="3494.76" departLane="best" from="-233560941#1" to="28906993#2"/>
    <trip id="motorcycle183" type="motorcycle_motorcycle" depart="3533.37" departLane="best" from="-30067029#2" to="29981356#5"/>
    <trip id="motorcycle184" type="motorcycle_motorcycle" depart="3552.68" departLane="best" from="29981110#0" to="-29981359#1"/>
    <trip id="motorcycle185" type="motorcycle_motorcycle" depart="3571.99" departLane="best" from="29981122#15" to="1183718459"/>
    <trip id="motorcycle186" type="motorcycle_motorcycle" depart="3591.30" departLane="best" from="29981359#1" to="223600260#2"/>
</routes>
