<?xml version="1.0" encoding="UTF-8"?>

<!-- generated on 2023-10-09 14:51:45.168886 by osmWebWizard.py UNKNOWN
<configuration>
    <net-file value="/opt/homebrew/Cellar/sumo/1.18.0/share/sumo/tools/2023-10-09-14-51-36/osm.net.xml.gz"/>
    <output-trip-file value="/opt/homebrew/Cellar/sumo/1.18.0/share/sumo/tools/2023-10-09-14-51-36/osm.pedestrian.trips.xml"/>
    <route-file value="/opt/homebrew/Cellar/sumo/1.18.0/share/sumo/tools/2023-10-09-14-51-36/osm.pedestrian.rou.xml"/>
    <pedestrians value="True"/>
    <prefix value="ped"/>
    <vehicle-class value="pedestrian"/>
    <fringe-factor value="1"/>
    <max-distance value="2000.0"/>
    <insertion-density value="10.0"/>
</configuration>
-->

<!-- generated on 2023-10-09 14:51:44 by Eclipse SUMO duarouter Version 1.18.0
<configuration xmlns:xsi="http://www.w3.org/2001/XMLSchema-instance" xsi:noNamespaceSchemaLocation="http://sumo.dlr.de/xsd/duarouterConfiguration.xsd">

    <input>
        <net-file value="/opt/homebrew/Cellar/sumo/1.18.0/share/sumo/tools/2023-10-09-14-51-36/osm.net.xml.gz"/>
        <route-files value="/opt/homebrew/Cellar/sumo/1.18.0/share/sumo/tools/2023-10-09-14-51-36/osm.pedestrian.trips.xml"/>
    </input>

    <output>
        <output-file value="/opt/homebrew/Cellar/sumo/1.18.0/share/sumo/tools/2023-10-09-14-51-36/osm.pedestrian.rou.xml"/>
        <alternatives-output value="NUL"/>
    </output>

    <time>
        <begin value="0.0"/>
        <end value="3600.0"/>
    </time>

    <report>
        <no-warnings value="true"/>
        <ignore-errors value="true"/>
        <no-step-log value="true"/>
    </report>

</configuration>
-->

<routes xmlns:xsi="http://www.w3.org/2001/XMLSchema-instance" xsi:noNamespaceSchemaLocation="http://sumo.dlr.de/xsd/routes_file.xsd">
    <vType id="ped_pedestrian" vClass="pedestrian"/>
    <person id="ped1" type="ped_pedestrian" depart="4.72">
        <walk edges="100180630#0 100180713#0 -685137885 -744259179#2 -744259179#1 -744259179#0 878405103#0 878405103#1 1097021901 232575181#8 232575181#7 232575181#6 232575182 232483614#1 232575183 725274063 -30247029#1 203983274#1 1033722525 1033722524#0 1033722524#1 1033722528#0 586673817#2 711982656#0 -80615934#3 -80615934#2 -80615934#1 -80615934#0"/>
    </person>
    <person id="ped2" type="ped_pedestrian" depart="9.45">
        <walk edges="711665718#3 739158589#2 739158589#0 726509440#1 102593666#2 102593666#1 102593677#2 102593677#1 102593677#0 -739158594#2 739158594#0 -29420433#0 110043954 -80615934#0 -80615934#1 -80615934#2 -80615934#3 711982656#0 586673817#2 1033722528#0 1033722524#1 1033722524#0 1033722525 203983274#1 -30247029#1 725274063 232575183 232483614#1 232575182 232575181#6 232575181#7 232575181#8 651589206#1 651589206#0"/>
    </person>
    <person id="ped3" type="ped_pedestrian" depart="14.17">
        <walk edges="83039031#0 238968135#2 238968135#3 238968135#4 238968135#5 233564751#2 233564751#0 710628939 711665725#4 711665725#5 711665725#7 -711665725#8 102593665#2 102593665#1 102593665#0 -739158594#8 -739158594#7 739158594#6 -739158594#5 -739158594#4 -739158594#3 -739158594#2 739158594#0 -29420433#0 110043954 -80615934#0 -80615934#1 -80615934#2 -80615934#3 711982656#0 586673817#2 586673818#2 725274060#1 725274060#2 650725364#0 -29980882"/>
    </person>
    <person id="ped4" type="ped_pedestrian" depart="18.89">
        <walk edges="179837471#0 724271237#2 724271237#1 724271237#0 844602943#2 844602943#3 179837467 100550913#1 100550913#0 101725354#3 101725354#2 101725354#1 101725362 101725352#1 711982660 711982659 711982661 586673817#0 1033722532 725274059#1 725274059#0 725274058#0 104797994 -80615934#9 80615934#10 -80615934#12 -80615934#13 -110043962#0 -110043962#1 711982669 -171801774#1 -171801774#0"/>
    </person>
    <person id="ped5" type="ped_pedestrian" depart="23.62">
        <walk edges="-744259179#1 -744259179#0 878405103#0 878405103#1 1097021901 232575181#8 232575181#7 249891234#1 249891234#2 249891234#3 711989082 147027500 99268563#0 99268563#1 232575181#3 232575181#4"/>
    </person>
    <person id="ped6" type="ped_pedestrian" depart="28.34">
        <walk edges="-158522437#0 -299530125 -385114873 -29980874#0 -29980874#1 -29980874#2 -29980874#4 29980931#0 44170022#1 -44170023#1 -44170024#1 -44170024#0 -29981356#0 232513052#1 232513052#0 232513073#2 232513073#1 232513071#1 232513071#0 232513065 743399462#0 710631802 -711659659 -730849790 -730849791 -711665725#0 856483674 856483675 856483678#4 856483678#3 856483678#2 856483678#1 856483678#0 710628931#2 710628931#1 710628931#0 711665715#0 -710628941#0 -726510657#0"/>
    </person>
    <person id="ped7" type="ped_pedestrian" depart="33.06">
        <walk edges="488952147#2 -488952147#1 843577438#0 843577437#2 843577437#1 843577437#0 711659111#0 711659109 488928587 -171801779#1 260735460#0 260735460#1 -260735462#1 -260735459#0 -260735459#1 260735459#2"/>
    </person>
    <person id="ped8" type="ped_pedestrian" depart="37.79">
        <walk edges="-776311813#2 96248299#0 238968135#4 710628930#0 710628930#1 1175337397#2 710628930#3 710628930#4 711665726#1 711665726#0 711659660 -730849789 743399460 -710631797#2 488961361#2 84306101#0 38584626#10 38584626#8 38584626#7 38584626#6 916411017 29981274#5 29981274#4 29981274#3 29981274#2 29981274#1 29981274#0 117181639#4 29980173#0 112552239#2 112552239#3 117181638 234992421 712212604 712212603#0 112552242 112552240 33238563#2 36962225#2 36962225#1 36962225#0 33238577#2"/>
    </person>
    <person id="ped9" type="ped_pedestrian" depart="42.51">
        <walk edges="712212606 29980944#5 29980944#4 29980944#2 29980944#0 30189666#3 117181639#6 117181639#5 117181639#4 117181639#3 117181639#2 117181639#1 117181639#0 883836883 -232481158#0 -80615934#0 -80615934#1 711982662#0 711982662#1 711982662#2 -80615934#7 -80615934#8 -80615934#9 80615934#10 -80615934#12 -80615934#13 110043957#0 110043957#1 711971174#0 -104797985"/>
    </person>
    <person id="ped10" type="ped_pedestrian" depart="47.23">
        <walk edges="712212603#0 712212604 234992421 117181638 112552239#3 112552239#2 29980173#0 117181639#4 29981274#0 29981274#1 29981274#2 29981274#3 29981274#4 29981274#5 916411017 38584626#6 38584626#7 38584626#8 38584626#10 84306101#0 488961361#2 -710631797#2 743399460 -730849789 711659660 711665726#0 711665726#1 710628930#4 710628930#3 710628930#2"/>
    </person>
    <person id="ped11" type="ped_pedestrian" depart="51.96">
        <walk edges="1169700516 100180993#0 100180993#1 70792915#1 871158798 871158797#2 711989080#1 232483607 232483608#0 232483608#1 725274063 -30247029#1 203983274#1 1033722525 1033722524#0 1033722524#1 1033722528#0 586673817#2 711982656#0 -80615934#3 -80615934#2 -80615934#1 -80615934#0 110043954 -29420433#0 739158594#0 -739158594#2 102593677#0 102593677#1 102593677#2 102593666#1 102593666#2 726509440#1 739158589#0 739158589#2 -655241416#0 655241416#1 655241416#2 -655241416#3"/>
    </person>
    <person id="ped13" type="ped_pedestrian" depart="61.40">
        <walk edges="-29981099#1 29981099#2 29981099#4 230943665 230943664#0 230943668 230943675#0 230943675#1 -30276468#1 -30276468#0 -29981356#5 29981274#3 29981274#4 29981274#5 916411017 38584626#6 38584626#7 38584626#8 38584626#10 84306101#0 488961361#2 -710631797#2 743399460 -730849789 711659660 710628935#1 710628935#0 -739158594#17 -739158594#18 -739158594#19 739158594#20 -29981289#0 -29981289#1 -29981289#2"/>
    </person>
    <person id="ped14" type="ped_pedestrian" depart="66.13">
        <walk edges="739158594#10 -739158594#11 -739158594#12 710628938#0 710628938#1 -730849791 -730849790 -711659659 710631804 202149025#2 -38584626#10 -38584626#8 421173843 383592524#0 383592524#1 383592524#2 383592524#3"/>
    </person>
    <person id="ped15" type="ped_pedestrian" depart="70.85">
        <walk edges="712212603#3 112552243 712212586#0 712212586#1 712212586#2 712212588 712212594 712212598#1 712212597 194758859 194758860 299438852#0 299438852#1 385114873 29980874#0 29980874#1 29980874#2 29980874#4 -29980931#0 44170022#1 -44170023#1 -44170024#1 -44170024#0 -29981356#0 232513052#1 232513052#0 232513073#2 232513073#1 232513071#1 232513071#0 232513065 -232513068#0 -232513068#1 -232513068#2 -488961362 743399463#0 990174036 990515064#1 711660837 711660840#0"/>
    </person>
    <person id="ped16" type="ped_pedestrian" depart="75.57">
        <walk edges="249247717 625832761#8 711971174#0 110043957#1 110043957#0 -80615934#13 -80615934#12 80615934#10 711659100 711659101 711659102 171801780#2 711659110 711659112#0 711659112#1 739158593#1 739158593#0 711665722 -711665724#0 -711665724#1 -711665731 -726509439 178642937 102593661#5 102593661#6 102593661#7 102593661#8 102593661#9 178642953#0 -739158594#7 -739158594#8 -739158594#9 739158594#10 -739158594#11 -739158594#12 739158594#14 -739158594#15 739158594#16 -739158594#17 -739158594#18 -739158594#19 739158594#20 -29981289#0 776311814 95407255#1 95407255#2 95407255#3 95407255#4 776311815#3 776311815#2 -95407249#4 95407251"/>
    </person>
    <person id="ped17" type="ped_pedestrian" depart="80.29">
        <walk edges="158522460#1 -158522460#0 -299438852#2 -385114873 -29980874#0 -29980874#1 -29980874#2 -29980874#4 29980931#1 29980931#2 117181639#2 117181639#1 117181639#0 883836883 -232481158#0 110043954 -29420433#0 739158594#0 -739158594#2 102593677#0 102593677#1 102593677#2 102593666#1 102593666#2 726509440#1 739158589#0 739158589#2 -655241416#0 655241416#1 655241416#2 -655241416#3 -655241416#4 -655241416#5 -655241416#6 -655241416#7 -655241416#8 -655241416#9 299028695#2 299028695#3 299028695#4"/>
    </person>
    <person id="ped18" type="ped_pedestrian" depart="85.02">
        <walk edges="726509440#1 726509440#2 711665727#1 711665728 102593661#9 178642953#0 -739158594#7 -739158594#8 -739158594#9 739158594#10 -739158594#11 -739158594#12 710628938#0 710628938#1 -730849791 -730849790 -711659659 710631804 202149025#2 -38584626#10 -38584626#8 421173843 383592524#0 383592524#1 421173846#0"/>
    </person>
    <person id="ped19" type="ped_pedestrian" depart="89.74">
        <walk edges="743399458#0 -232481158#2 232481158#1 -232481158#0 -80615934#0 -80615934#1 -80615934#2 -80615934#3 711982656#0 586673817#2 1033722528#0 1033722524#1 1033722524#0 1033722525 203983274#1 -30247029#1 725274063 232575183 232483614#1 232575182 232575181#6 232575181#7 232575181#8 651589206#1 651589206#0 772744595 30000953#8 30000953#7 30000953#6 30000953#5 30000953#4 30000953#3 30000953#2"/>
    </person>
    <person id="ped20" type="ped_pedestrian" depart="94.46">
        <walk edges="710628936#1 711660840#2 711660840#1 711660840#0 711660837 990515064#1 990174036 743399463#0 -488961362 -232513068#2 -232513068#1 -232513068#0 232513065 232513071#0 232513071#1 232513073#1 232513073#2 232513052#0 232513052#1 -29981356#0 -44170024#0 -44170024#1 -44170023#1 44170022#1 -29980931#0 29980874#4 29980874#2 29980874#1 29980874#0 385114873 299438852#1 299438852#0 -29980944#0 -29980944#2 -230237130#0"/>
    </person>
    <person id="ped21" type="ped_pedestrian" depart="99.19">
        <walk edges="-80615934#9 -80615934#8 -80615934#7 711982662#2 711982662#1 711982662#0 -80615934#1 -80615934#0 -232481158#0 883836883 117181639#0 117181639#1 117181639#2 117181639#3 117181639#4 117181639#5 117181639#6 -30189666#3 -29980944#0 -29980944#2 230237130#0 230237130#1 -230237130#4 712212605 1010548574"/>
    </person>
    <person id="ped22" type="ped_pedestrian" depart="103.91">
        <walk edges="-299438852#1 385114873 29980874#0 29980874#1 29980874#2 29980874#4 29980931#1 29980931#2 117181639#2 117181639#1 117181639#0 883836883 -232481158#0 110043954 -29420433#0 -29420433#1 -106384420 -102593674#0 -102593674#1 739158591 709578712#0 709578712#1 709578713#1 709578713#0 843577438#1 -488952147#1 843577433#0 843577433#1 843577433#2 -843577433#3"/>
    </person>
    <person id="ped23" type="ped_pedestrian" depart="108.63">
        <walk edges="-30189666#0 724271238#2 724271238#1 724271238#0 724271237#1 724271237#0 844602943#2 844602943#3 844602943#4 844602943#5 -30247029#0 -30247029#1 99269124 100181681#5 100181681#6 100181053#0"/>
    </person>
    <person id="ped24" type="ped_pedestrian" depart="113.36">
        <walk edges="443209391#1 856483671 856483670#3 1175334870#0 959877246#1 959877244 -739158594#12 739158594#14 -739158594#15 739158594#16 -739158594#17 -739158594#18 -739158594#19 710631795 711660836 990515064#0 -1190889944#0 1190866332#0 1190866332#1 1190866333#0 1190866334 -1190866329#1 492947057 1190976257#2 1190976257#1"/>
    </person>
    <person id="ped25" type="ped_pedestrian" depart="118.08">
        <walk edges="1192467271 29981078#1 -29981078#0 220630725 220630726#5 220630726#6 220630719#3 220630719#2 220630719#1 220630719#0 -876482806#4 -220630716#0 743399460 -730849789 711659660 710628935#1 710628935#0 -739158594#16"/>
    </person>
    <person id="ped27" type="ped_pedestrian" depart="127.53">
        <walk edges="488952146#0 739631212#4 739631212#5 739631217#1 739631217#0 655241412#2 655241412#1 711668045 711665729#2 711665729#1 711665721#1 739158589#0 726509440#2 711665727#1 711665728 102593661#9 178642953#0 -739158594#7 -739158594#8 -739158594#9 739158594#10 -739158594#11 -739158594#12 739158594#14 -739158594#15 739158594#16 710628937 959877241 39822079#3"/>
    </person>
    <person id="ped28" type="ped_pedestrian" depart="132.25">
        <walk edges="-711967200#0 713410952#1 732160613#2 53879357#1 -53879357#0 -29980882 650725364#0 725274060#2 725274060#1 586673818#2 586673817#2 711982656#0 -80615934#3 -80615934#2 -80615934#1 -80615934#0 -232481158#0 232481160 232513050 232513061#2 -232513061#3 -232513061#4 -232513061#5 -232513061#6 -232513061#7 -232513068#0 -232513068#1 -232513068#2 -488961362 743399463#0 743399463#1 711660836 711660839#0 711660839#1"/>
    </person>
    <person id="ped29" type="ped_pedestrian" depart="136.97">
        <walk edges="-711659659 710631804 202149025#2 -38584626#10 -38584626#8 -38584626#7 38584626#6 916411017 29981274#5 29981274#4 29981274#3 -29981356#5 -30276468#0 -30276468#1 230943675#1 230943675#0 230943668 230943664#1 -158522472#3 -158522472#2 158522472#1"/>
    </person>
    <person id="ped31" type="ped_pedestrian" depart="146.42">
        <walk edges="29980173#0 117181639#4 117181639#3 117181639#2 117181639#1 117181639#0 883836883 -232481158#0 110043954 -29420433#0 711665730#4 711665730#3 711665730#2 711665730#1 711665730#0 80615938#2 80615938#0 711665729#4 655241412#0 655241412#1 655241412#2 655241412#3 655241412#4 655241412#5"/>
    </person>
    <person id="ped32" type="ped_pedestrian" depart="151.14">
        <walk edges="737117253#0 -713410955#1 -713410955#0 -732160609 732160610 -233208573#4 -233208573#3 -233208573#2 -233208573#1 1042205208 233208566#2 233208566#1 870260407#1 870260406#1 870260406#0 711982651#0 711982652#0 711982652#1 625832760#3 711982653#2"/>
    </person>
    <person id="ped33" type="ped_pedestrian" depart="155.87">
        <walk edges="-83039031#1 -96248299#1 96248299#0 238968135#4 238968135#5 233564751#2 233564751#0 710628939 711665725#4 711665725#5 711665725#7 -711665725#8 -726509440#4 -726509440#3 -726509440#2 -726509440#1 -726509440#0 -726509439 -711665731 -711665724#1 -711665724#0 711665722 739158593#0 739158593#1 711659112#1 -178642940#1"/>
    </person>
    <person id="ped34" type="ped_pedestrian" depart="160.59">
        <walk edges="1033722525 1033722524#0 1033722524#1 1033722528#0 586673817#2 711982656#0 -80615934#3 -80615934#2 -80615934#1 -80615934#0 -232481158#0 232481160 232513050 232513061#2 -232513061#3 -232513061#4 -232513061#5 -232513061#6 -232513061#7 -232513068#0 -232513068#1 -232513068#2 -488961362 743399463#0 990174036 990515064#1 711660837 711660840#0 711660840#1 711660840#2 776311815#0 -95407249#8 -95407251"/>
    </person>
    <person id="ped35" type="ped_pedestrian" depart="165.31">
        <walk edges="-739158594#2 739158594#0 -29420433#0 110043954 -232481158#0 232481158#1 -232481158#2 -743399458#0 -743399458#1 743399458#2 -220630716#0 -876482806#3 -876482806#2 -876482806#1 876482806#0"/>
    </person>
    <person id="ped36" type="ped_pedestrian" depart="170.04">
        <walk edges="772744601 772744596#4 772744596#3 772744596#2 772744597 30000953#7 30000953#8 772744595 651589206#0 651589206#1 232575181#8 232575181#7 232575181#6 232575182 232483614#1 232575183 725274063 -30247029#1 203983274#1 1033722525 1033722524#0"/>
    </person>
    <person id="ped37" type="ped_pedestrian" depart="174.76">
        <walk edges="489022066 101725352#6 101725352#5 101725352#4 101725352#3 101725352#2 101725352#1 711982660 711982659 711982661 586673817#0 1033722532 725274059#1 725274059#0 725274058#0 104797994 -80615934#9 711659100 711659101 711659102 171801780#2 711659110 711659112#0 711659112#1 739158593#1 -178642958#1 178642949"/>
    </person>
    <person id="ped38" type="ped_pedestrian" depart="179.48">
        <walk edges="853734874#1 -488928576#0 -625832760#4 711982652#1 711982652#0 711982651#1 -711971175#1 711971172 711971173#1 711971175#0 110043957#2 110043957#1 110043957#0 -80615934#13 -80615934#12 711659099 711659098 711659097 711659109 711659105 711659104 711659103 -106384415#8 106384415#7 -106384415#6 -106384415#5 -106384415#4 -106384415#3 -106384415#2 225031411"/>
    </person>
    <person id="ped39" type="ped_pedestrian" depart="184.21">
        <walk edges="-95407249#3 -95407249#4 776311815#2 776311815#3 95407255#4 95407255#3 95407255#2 95407255#1 776311814 -29981289#0 739158594#20 -739158594#19 -739158594#18 -739158594#17 710628935#0 710628935#1 711659660 -730849789 743399460 -220630716#0 -876482806#3"/>
    </person>
    <person id="ped40" type="ped_pedestrian" depart="188.93">
        <walk edges="29980931#1 -29980931#0 44170022#1 -44170023#1 -44170024#1 -44170024#0 -29981356#0 232513052#1 232513052#0 232513073#2 232513073#1 232513071#1 232513071#0 232513065 -232513068#0 -232513068#1 -232513068#2 -488961362 743399463#0 990174036 990515064#1 711660837 711660840#0 711660840#1 711660840#2 776311815#0 -95407249#8 -95407249#9 -95407249#10 95407257#1 -95407257#0 -95407249#0"/>
    </person>
    <person id="ped41" type="ped_pedestrian" depart="193.65">
        <walk edges="30247029#5 725274060#2 725274060#1 725274061#2 725274061#1 725274061#0 104797996#2 104797996#1 104797996#0 80615934#10 711659099 711659098 711659097 711659109 711659111#0 843577437#0"/>
    </person>
    <person id="ped42" type="ped_pedestrian" depart="198.38">
        <walk edges="178642956#1 -178642958#6 -102593674#1 -178642940#0 711659112#0 711659110 171801780#2 711659102 711659101 711659100 -80615934#9 104797994 725274058#0 725274059#0 725274059#1 1033722532 1033722528#0 1033722524#1 1033722524#0 1033722525 203983274#1 -30247029#1 725274063 232575183 232483614#1 232575182 232575181#6 232575181#7 232575181#8 1097021901 878405103#1 878405103#0 -744259179#0 -744259179#1 -744259179#2 -744259179#3"/>
    </person>
    <person id="ped43" type="ped_pedestrian" depart="203.10">
        <walk edges="991456782#0 991456780#1 991456782#1 739631213#4 843577437#2 843577437#1 843577437#0 711659111#0 711659109 711659097 711659098 711659099 80615934#10 104797996#0 104797996#1 104797996#2 725274061#0 725274061#1 725274061#2 725274060#1 725274060#2 -30247029#5 233208563"/>
    </person>
    <person id="ped44" type="ped_pedestrian" depart="207.82">
        <walk edges="-29981078#1 -29981078#0 220630725 220630726#4 421173838 421173847 421173845 421173857#0 220630727#11 220630727#10 220630727#9 220630727#8 220630727#7 220630727#6 220630727#5 421173846#1 421173839 421173852#1 220630727#0 383592524#0 421173843 -38584626#7 38584626#6 916411017 29981274#5 29981274#4 29981274#3 29981356#5 30276468#0 30276468#1 30276468#2 -230940104#0"/>
    </person>
    <person id="ped45" type="ped_pedestrian" depart="212.55">
        <walk edges="-353612291 353612291 353612292#3 353612292#1 625832760#3 711982652#1 711982652#0 711982651#1 -711971175#1 711971172 711971173#1 711971175#0 110043957#2 110043957#1 110043957#0 -80615934#13 -80615934#12 80615934#10 -80615934#9 -80615934#8 -80615934#7 711982662#2 711982662#1 711982662#0 -80615934#1 -80615934#0 -232481158#0 232481158#1 -232481158#2 -743399458#0 -743399458#1 743399458#2 -220630716#0 220630716#1 -220630718#1 -220630718#2 220630724#0 220630726#0 220630726#1 421173853#0 421173834#0 220630727#10 421173857#1"/>
    </person>
    <person id="ped46" type="ped_pedestrian" depart="217.27">
        <walk edges="711989074 -36962217#1 36962221#0 33238563#3 112552240 112552242 712212603#0 712212604 234992421 117181638 -30189666#0 724271238#2 724271235#3 179837471#1 179837471#0"/>
    </person>
    <person id="ped47" type="ped_pedestrian" depart="221.99">
        <walk edges="-233208568#3 711982644 -260735459#1 -260735459#0 -260735462#1 260735460#1 260735460#0 -171801779#1 171801779#0 80615934#10 711659100 711659101 711659102 171801780#1 171801777 171801770#2"/>
    </person>
    <person id="ped48" type="ped_pedestrian" depart="226.71">
        <walk edges="991456780#8 991456779#0 991456779#1 739631212#0 711665736#2 711665736#1 711665736#0 488952133#1 488952135 -1107053132 -106384414#2 -106384414#1 -106384414#0 -29420433#1 -29420433#0 110043954 -232481158#0 883836883 117181639#0 117181639#1 117181639#2 117181639#3 117181639#4 117181639#5 117181639#6 -30189666#3 194758860 194758859 712212597 712212598#1 712212594 712212588 712212586#2 712212586#1 234992433#0 234992433#1"/>
    </person>
    <person id="ped49" type="ped_pedestrian" depart="231.44">
        <walk edges="95407249#4 776311815#1 776311815#0 711660840#2 711660840#1 711660840#0 711660837 990515064#1 990174036 743399463#0 -488961362 -232513068#2 -232513068#1 -232513068#0 232513065 232513071#0 232513071#1 232513073#0 232513073#5 232513073#4 -743399457#2 743399457#1"/>
    </person>
    <person id="ped50" type="ped_pedestrian" depart="236.16">
        <walk edges="-106384415#7 -106384415#8 711659103 711659104 711659105"/>
    </person>
    <person id="ped51" type="ped_pedestrian" depart="240.88">
        <walk edges="655096667#0 655096667#2 843577440 711665736#2 711665736#1 739631213#0 709578711 843577438#1 843577438#0 843577437#2 843577437#1 843577437#0 711659111#0 711659109 711659097 711659098 711659099 -80615934#12 -80615934#13 110043957#0 110043957#1 711971174#0 625832761#8 249247719"/>
    </person>
    <person id="ped53" type="ped_pedestrian" depart="250.33">
        <walk edges="-35742163 -1190889946#1 -1190889946#0 -1190889945#0 -1190889943#3 -1190889943#2 -1190889943#1 -1190889943#0 -1190889944#0 990174036 743399463#0 -488961362 -232513056 -743399461 743399460 -220630716#0 220630716#1 -220630718#0 220630718#0"/>
    </person>
    <person id="ped55" type="ped_pedestrian" depart="259.78">
        <walk edges="772744599 30000953#8 772744595 651589206#0 651589206#1 232575181#8 232575181#7 232575181#6 232575182 232483614#1 232575183 725274063 -30247029#1 203983274#1 1033722525 1033722524#0 1033722524#1 1033722528#0 586673817#2 711982656#0 -80615934#3 -80615934#2 -80615934#1 -80615934#0 -232481158#0 232481160 232513050 232513061#2 -232513061#3 -232513061#4 -232513061#5 -232513061#6 -232513061#7 -232513068#0 -232513068#1 -232513068#2 -488961362 743399463#0 990174036 990515064#1 711660837 711660840#0 711660840#1 711660840#2 776311815#0 -95407249#8 -95407249#9 -95407249#10"/>
    </person>
    <person id="ped56" type="ped_pedestrian" depart="264.50">
        <walk edges="232575169 100180993#1 70792915#1 871158798 871158797#2 711989080#1 232483607 232483608#0 232483608#1 100181064#1 100181064#2 100181681#6 100181681#1 100181681#2 100181077 100181227#2 650725364#0 -29980882 -53879357#0 53879357#1 713410954#0 737117253#0 -713410955#1 -713410955#0 -732160609 732160610 -233208573#4 -260735459#3 -260735459#4 -260735459#5 732160607#0 -711982638#1"/>
    </person>
    <person id="ped57" type="ped_pedestrian" depart="269.22">
        <walk edges="853734871#1 853734870 -853734869 353612292#1 625832760#3 711982652#1 711982652#0 711982651#1 -711971175#1 711971172 711971173#1 711971175#0 110043957#2 110043957#1 110043957#0 -80615934#13 -80615934#12 711659099 711659098 711659097 711659109 711659105 711659104 711659103 -106384415#8 106384415#7 -106384415#6 -106384415#5 -106384415#4 -106384415#3 -106384415#2 225031411 772742025#0"/>
    </person>
    <person id="ped59" type="ped_pedestrian" depart="278.67">
        <walk edges="39822079#2 -39822079#3 959877241 710628937 739158594#16 -739158594#15 739158594#14 -739158594#12 -739158594#11 739158594#10 -739158594#9 -739158594#8 -739158594#7 178642953#0 102593661#9 102593661#8 102593661#7 102593661#6 102593661#5 178642937 -726509439 -711665731 80615938#2 711665732#1 711665736#0 739631213#1 991456781#0 991456781#1 991456780#4 991456780#3 -590376513 -655096637#0 -655096637#1"/>
    </person>
    <person id="ped60" type="ped_pedestrian" depart="283.39">
        <walk edges="711982636#0 711971171#2 711971171#1 -711971171#0 843585495#0 232484703#3 232484703#2 232484703#1 232484703#0 1097747813 650725364#0 100181227#2 100181077 100181681#2 100181681#1 100181053#0 100181053#1 871158799#1 232483614#1 232575182 232575181#6 249891234#1"/>
    </person>
    <person id="ped61" type="ped_pedestrian" depart="288.12">
        <walk edges="711982658#2 1033722533 1033722528#0 1033722524#1 1033722524#0 1033722525 203983274#1 -30247029#1 99269124 100181681#5 100181681#6 100181681#1 100181140 232483612#2 232483612#1 238968132"/>
    </person>
    <person id="ped62" type="ped_pedestrian" depart="292.84">
        <walk edges="-100180630#0 100180713#0 -685137885 -744259179#2 -744259179#1 -744259179#0 878405103#0 878405103#1 1097021901 232575181#8 232575181#7 232575181#6 232575182 232483614#1 232575183 725274063 -30247029#1 203983274#1 1033722525 1033722524#0 1033722524#1 1033722528#0 1033722532 725274059#1 725274059#0 725274058#0 104797994 -80615934#9 80615934#10 711659099 711659098 711659097 711659109 711659105 711659104 711659103 -106384415#8 106384415#7 -106384415#6 -106384415#5 -106384415#4 -106384415#3 -106384415#2 -106384415#1 -106384415#0 106384415#0"/>
    </person>
    <person id="ped63" type="ped_pedestrian" depart="297.56">
        <walk edges="-1190889944#0 990174036 743399463#0 -488961362 -232513068#2 -232513068#1 -232513068#0 -232513061#7 -232513061#6 -232513061#5 -232513061#4 -232513061#3 232513061#2 -232513061#1 -232513061#0 711982662#1 711982662#2 -80615934#7 -80615934#8 -80615934#9 80615934#10 -80615934#12 -80615934#13 110043957#0 110043957#1 110043957#2 711971175#0 711971173#1 711971172 -711971175#1 711982651#1 711982652#0 711982652#1 711982652#2 866019775#1 866019775#0"/>
    </person>
    <person id="ped64" type="ped_pedestrian" depart="302.29">
        <walk edges="776311813#2 238968135#3 238968135#4 238968135#5 233564751#2 233564751#0 710628939 711665725#4 711665725#5 710628931#2 710628931#1 710628931#0 711665715#0 -710628941#0 726510657#2"/>
    </person>
    <person id="ped65" type="ped_pedestrian" depart="307.01">
        <walk edges="102593661#7 102593661#6 102593661#5 178642937 -726509439 -711665731 -711665724#1 -711665724#0 711665722 739158593#0 739158593#1 711659112#1 711659112#0 711659110 171801780#2 711659102 711659101 711659100 80615934#10 -80615934#12 -80615934#13 -110043962#0 -110043962#1 -110043962#2 178646448 178646456#1 178646456#2 178646456#3 178646456#4 178646456#5 178646455#1 178646455#0 178646460#7 178646460#6 178646460#5 178646460#4 178646460#3 178646460#2 178646460#1 178646460#0 -232514986"/>
    </person>
    <person id="ped67" type="ped_pedestrian" depart="316.46">
        <walk edges="-29980874#1 -29980874#2 -29980874#4 29980931#0 44170022#1 -44170023#1 -44170024#1 -44170024#0 -29981356#0 232513052#1 232513052#0 232513073#3 232513073#4 232513058#0 232513058#1"/>
    </person>
    <person id="ped68" type="ped_pedestrian" depart="321.18">
        <walk edges="-234992431#0 -234992431#1 725274058#0 104797994 -80615934#9 80615934#10 -80615934#12 -80615934#13 110043957#0 110043957#1 110043957#2 711971175#0 711971173#1"/>
    </person>
    <person id="ped70" type="ped_pedestrian" depart="330.63">
        <walk edges="232481160 -232481158#0 29420431"/>
    </person>
    <person id="ped71" type="ped_pedestrian" depart="335.35">
        <walk edges="-95407249#4 776311815#1 776311815#0 711660840#2 711660840#1 711660840#0 711660837 990515064#1 990174036 743399463#0 -488961362 -232513068#2 -232513068#1 -232513068#0 -232513061#7 -232513061#6 -232513061#5 -232513061#4 -232513061#3 232513061#2 232513050 232481160 -232481158#0 -80615934#0 -80615934#1 -80615934#2 -80615934#3 711982656#0 586673817#2 1033722528#0 1033722524#1 1033722524#0 1033722525 203983274#1 -30247029#1 725274063 232575183 232483614#1 232575182 232575181#6 232575181#7 232575181#8 651589206#1 651589206#0 772744595 30000953#8 30000953#7 772744597 772744596#2"/>
    </person>
    <person id="ped72" type="ped_pedestrian" depart="340.07">
        <walk edges="179837471#3 179837471#4 179837471#5 29980173#1 112552239#1 844602939#1 117181639#1 117181639#0 883836883 -232481158#0 110043954 -29420433#0 739158594#0 -739158594#2 -739158594#3"/>
    </person>
    <person id="ped73" type="ped_pedestrian" depart="344.80">
        <walk edges="249891234#1 232575181#6 232575182 232483614#1 232575183 725274063 -30247029#1 203983274#1 1033722525 1033722524#0 1033722524#1 1033722528#0 586673817#2 711982656#0 -80615934#3 -80615934#2 -80615934#1 -80615934#0 -232481158#0 232481160 232513050 232513061#2 -232513061#3 -232513061#4 -232513061#5 -232513061#6 -232513061#7 -232513068#0 -232513068#1 -232513068#2 -488961362 743399463#0 990174036 990515064#1 711660837 711660840#0 711660840#1"/>
    </person>
    <person id="ped74" type="ped_pedestrian" depart="349.52">
        <walk edges="-732160603#0 732160610 -232484698#0 -260735462#1 260735460#1 260735460#0 -171801779#1 488928587 711659109 711659105 711659104 711659103 106384415#9 178642940#1 -178642940#0 -102593674#1 102593674#0"/>
    </person>
    <person id="ped75" type="ped_pedestrian" depart="354.24">