<?xml version="1.0" encoding="UTF-8"?>

<!-- generated on 2023-10-09 14:51:44.385034 by osmWebWizard.py UNKNOWN
<configuration>
    <net-file value="/opt/homebrew/Cellar/sumo/1.18.0/share/sumo/tools/2023-10-09-14-51-36/osm.net.xml.gz"/>
    <output-trip-file value="/opt/homebrew/Cellar/sumo/1.18.0/share/sumo/tools/2023-10-09-14-51-36/osm.pedestrian.trips.xml"/>
    <route-file value="/opt/homebrew/Cellar/sumo/1.18.0/share/sumo/tools/2023-10-09-14-51-36/osm.pedestrian.rou.xml"/>
    <pedestrians value="True"/>
    <prefix value="ped"/>
    <vehicle-class value="pedestrian"/>
    <fringe-factor value="1"/>
    <max-distance value="2000.0"/>
    <insertion-density value="10.0"/>
</configuration>
-->

<routes xmlns:xsi="http://www.w3.org/2001/XMLSchema-instance" xsi:noNamespaceSchemaLocation="http://sumo.dlr.de/xsd/routes_file.xsd">
    <vType id="ped_pedestrian" vClass="pedestrian"/>
    <person id="ped0" depart="0.00" type="ped_pedestrian">
        <walk from="488928585#2" to="-1192467268"/>
    </person>
    <person id="ped1" depart="4.72" type="ped_pedestrian">
        <walk from="100180630#0" to="-80615934#0"/>
    </person>
    <person id="ped2" depart="9.45" type="ped_pedestrian">
        <walk from="711665718#3" to="651589206#0"/>
    </person>
    <person id="ped3" depart="14.17" type="ped_pedestrian">
        <walk from="83039031#0" to="-29980882"/>
    </person>
    <person id="ped4" depart="18.89" type="ped_pedestrian">
        <walk from="179837471#0" to="-171801774#0"/>
    </person>
    <person id="ped5" depart="23.62" type="ped_pedestrian">
        <walk from="-744259179#1" to="232575181#4"/>
    </person>
    <person id="ped6" depart="28.34" type="ped_pedestrian">
        <walk from="-158522437#0" to="-726510657#0"/>
    </person>
    <person id="ped7" depart="33.06" type="ped_pedestrian">
        <walk from="488952147#2" to="260735459#2"/>
    </person>
    <person id="ped8" depart="37.79" type="ped_pedestrian">
        <walk from="-776311813#2" to="33238577#2"/>
    </person>
    <person id="ped9" depart="42.51" type="ped_pedestrian">
        <walk from="712212606" to="-104797985"/>
    </person>
    <person id="ped10" depart="47.23" type="ped_pedestrian">
        <walk from="712212603#0" to="710628930#2"/>
    </person>
    <person id="ped11" depart="51.96" type="ped_pedestrian">
        <walk from="1169700516" to="-655241416#3"/>
    </person>
    <person id="ped12" depart="56.68" type="ped_pedestrian">
        <walk from="927723647" to="112552242"/>
    </person>
    <person id="ped13" depart="61.40" type="ped_pedestrian">
        <walk from="-29981099#1" to="-29981289#2"/>
    </person>
    <person id="ped14" depart="66.13" type="ped_pedestrian">
        <walk from="739158594#10" to="383592524#3"/>
    </person>
    <person id="ped15" depart="70.85" type="ped_pedestrian">
        <walk from="712212603#3" to="711660840#0"/>
    </person>
    <person id="ped16" depart="75.57" type="ped_pedestrian">
        <walk from="249247717" to="95407251"/>
    </person>
    <person id="ped17" depart="80.29" type="ped_pedestrian">
        <walk from="158522460#1" to="299028695#4"/>
    </person>
    <person id="ped18" depart="85.02" type="ped_pedestrian">
        <walk from="726509440#1" to="421173846#0"/>
    </person>
    <person id="ped19" depart="89.74" type="ped_pedestrian">
        <walk from="743399458#0" to="30000953#2"/>
    </person>
    <person id="ped20" depart="94.46" type="ped_pedestrian">
        <walk from="710628936#1" to="-230237130#0"/>
    </person>
    <person id="ped21" depart="99.19" type="ped_pedestrian">
        <walk from="-80615934#9" to="1010548574"/>
    </person>
    <person id="ped22" depart="103.91" type="ped_pedestrian">
        <walk from="-299438852#1" to="-843577433#3"/>
    </person>
    <person id="ped23" depart="108.63" type="ped_pedestrian">
        <walk from="-30189666#0" to="100181053#0"/>
    </person>
    <person id="ped24" depart="113.36" type="ped_pedestrian">
        <walk from="443209391#1" to="1190976257#1"/>
    </person>
    <person id="ped25" depart="118.08" type="ped_pedestrian">
        <walk from="1192467271" to="-739158594#16"/>
    </person>
    <person id="ped26" depart="122.80" type="ped_pedestrian">
        <walk from="-95407249#9" to="875094531"/>
    </person>
    <person id="ped27" depart="127.53" type="ped_pedestrian">
        <walk from="488952146#0" to="39822079#3"/>
    </person>
    <person id="ped28" depart="132.25" type="ped_pedestrian">
        <walk from="-711967200#0" to="711660839#1"/>
    </person>
    <person id="ped29" depart="136.97" type="ped_pedestrian">
        <walk from="-711659659" to="158522472#1"/>
    </person>
    <person id="ped30" depart="141.70" type="ped_pedestrian">
        <walk from="990454515" to="488952092#0"/>
    </person>
    <person id="ped31" depart="146.42" type="ped_pedestrian">
        <walk from="29980173#0" to="655241412#5"/>
    </person>
    <person id="ped32" depart="151.14" type="ped_pedestrian">
        <walk from="737117253#0" to="711982653#2"/>
    </person>
    <person id="ped33" depart="155.87" type="ped_pedestrian">
        <walk from="-83039031#1" to="-178642940#1"/>
    </person>
    <person id="ped34" depart="160.59" type="ped_pedestrian">
        <walk from="1033722525" to="-95407251"/>
    </person>
    <person id="ped35" depart="165.31" type="ped_pedestrian">
        <walk from="-739158594#2" to="876482806#0"/>
    </person>
    <person id="ped36" depart="170.04" type="ped_pedestrian">
        <walk from="772744601" to="1033722524#0"/>
    </person>
    <person id="ped37" depart="174.76" type="ped_pedestrian">
        <walk from="489022066" to="178642949"/>
    </person>
    <person id="ped38" depart="179.48" type="ped_pedestrian">
        <walk from="853734874#1" to="225031411"/>
    </person>
    <person id="ped39" depart="184.21" type="ped_pedestrian">
        <walk from="-95407249#3" to="-876482806#3"/>
    </person>
    <person id="ped40" depart="188.93" type="ped_pedestrian">
        <walk from="29980931#1" to="-95407249#0"/>
    </person>
    <person id="ped41" depart="193.65" type="ped_pedestrian">
        <walk from="30247029#5" to="843577437#0"/>
    </person>
    <person id="ped42" depart="198.38" type="ped_pedestrian">
        <walk from="178642956#1" to="-744259179#3"/>
    </person>
    <person id="ped43" depart="203.10" type="ped_pedestrian">
        <walk from="991456782#0" to="233208563"/>
    </person>
    <person id="ped44" depart="207.82" type="ped_pedestrian">
        <walk from="-29981078#1" to="-230940104#0"/>
    </person>
    <person id="ped45" depart="212.55" type="ped_pedestrian">
        <walk from="-353612291" to="421173857#1"/>
    </person>
    <person id="ped46" depart="217.27" type="ped_pedestrian">
        <walk from="711989074" to="179837471#0"/>
    </person>
    <person id="ped47" depart="221.99" type="ped_pedestrian">
        <walk from="-233208568#3" to="171801770#2"/>
    </person>
    <person id="ped48" depart="226.71" type="ped_pedestrian">
        <walk from="991456780#8" to="234992433#1"/>
    </person>
    <person id="ped49" depart="231.44" type="ped_pedestrian">
        <walk from="95407249#4" to="743399457#1"/>
    </person>
    <person id="ped50" depart="236.16" type="ped_pedestrian">
        <walk from="-106384415#7" to="711659105"/>
    </person>
    <person id="ped51" depart="240.88" type="ped_pedestrian">
        <walk from="655096667#0" to="249247719"/>
    </person>
    <person id="ped52" depart="245.61" type="ped_pedestrian">
        <walk from="-95407249#8" to="488952092#2"/>
    </person>
    <person id="ped53" depart="250.33" type="ped_pedestrian">
        <walk from="-35742163" to="220630718#0"/>
    </person>
    <person id="ped54" depart="255.05" type="ped_pedestrian">
        <walk from="225031401" to="927723623"/>
    </person>
    <person id="ped55" depart="259.78" type="ped_pedestrian">
        <walk from="772744599" to="-95407249#10"/>
    </person>
    <person id="ped56" depart="264.50" type="ped_pedestrian">
        <walk from="232575169" to="-711982638#1"/>
    </person>
    <person id="ped57" depart="269.22" type="ped_pedestrian">
        <walk from="853734871#1" to="772742025#0"/>
    </person>
    <person id="ped58" depart="273.95" type="ped_pedestrian">
        <walk from="101725354#4" to="488928585#1"/>
    </person>
    <person id="ped59" depart="278.67" type="ped_pedestrian">
        <walk from="39822079#2" to="-655096637#1"/>
    </person>
    <person id="ped60" depart="283.39" type="ped_pedestrian">
        <walk from="711982636#0" to="249891234#1"/>
    </person>
    <person id="ped61" depart="288.12" type="ped_pedestrian">
        <walk from="711982658#2" to="238968132"/>
    </person>
    <person id="ped62" depart="292.84" type="ped_pedestrian">
        <walk from="-100180630#0" to="106384415#0"/>
    </person>
    <person id="ped63" depart="297.56" type="ped_pedestrian">
        <walk from="-1190889944#0" to="866019775#0"/>
    </person>
    <person id="ped64" depart="302.29" type="ped_pedestrian">
        <walk from="776311813#2" to="726510657#2"/>
    </person>
    <person id="ped65" depart="307.01" type="ped_pedestrian">
        <walk from="102593661#7" to="-232514986"/>
    </person>
    <person id="ped66" depart="311.73" type="ped_pedestrian">
        <walk from="776311813#1" to="876522598"/>
    </person>
    <person id="ped67" depart="316.46" type="ped_pedestrian">
        <walk from="-29980874#1" to="232513058#1"/>
    </person>
    <person id="ped68" depart="321.18" type="ped_pedestrian">
        <walk from="-234992431#0" to="711971173#1"/>
    </person>
    <person id="ped69" depart="325.90" type="ped_pedestrian">
        <walk from="711982640" to="-488952092#2"/>
    </person>
    <person id="ped70" depart="330.63" type="ped_pedestrian">
        <walk from="232481160" to="29420431"/>
    </person>
    <person id="ped71" depart="335.35" type="ped_pedestrian">
        <walk from="-95407249#4" to="772744596#2"/>
    </person>
    <person id="ped72" depart="340.07" type="ped_pedestrian">
        <walk from="179837471#3" to="-739158594#3"/>
    </person>
    <person id="ped73" depart="344.80" type="ped_pedestrian">
        <walk from="249891234#1" to="711660840#1"/>
    </person>
    <person id="ped74" depart="349.52" type="ped_pedestrian">
        <walk from="-732160603#0" to="102593674#0"/>
    </person>
    <person id="ped75" depart="354.24" type="ped_pedestrian">
        <walk from="991456780#5" to="488952147#2"/>
    </person>
    <person id="ped76" depart="358.97" type="ped_pedestrian">
        <walk from="220630719#0" to="233209431"/>
    </person>
    <person id="ped77" depart="363.69" type="ped_pedestrian">
        <walk from="-44170022#1" to="-80615934#12"/>
    </person>
    <person id="ped78" depart="368.41" type="ped_pedestrian">
        <walk from="112552244#2" to="33238577#0"/>
    </person>
    <person id="ped79" depart="373.13" type="ped_pedestrian">
        <walk from="-839956586" to="-776311813#1"/>
    </person>
    <person id="ped80" depart="377.86" type="ped_pedestrian">
        <walk from="-234992432#2" to="44170022#1"/>
    </person>
    <person id="ped81" depart="382.58" type="ped_pedestrian">
        <walk from="-83039031#1" to="844602939#1"/>
    </person>
    <person id="ped82" depart="387.30" type="ped_pedestrian">
        <walk from="739631217#0" to="-234992432#2"/>
    </person>
    <person id="ped83" depart="392.03" type="ped_pedestrian">
        <walk from="-853734874#1" to="586673815#1"/>
    </person>
    <person id="ped84" depart="396.75" type="ped_pedestrian">
        <walk from="-739158594#9" to="-488952141"/>
    </person>
    <person id="ped85" depart="401.47" type="ped_pedestrian">
        <walk from="871158799#1" to="29981274#4"/>
    </person>
    <person id="ped86" depart="406.20" type="ped_pedestrian">
        <walk from="230944145" to="711982671"/>
    </person>
    <person id="ped87" depart="410.92" type="ped_pedestrian">
        <walk from="712212603#4" to="-712212608"/>
    </person>
    <person id="ped88" depart="415.64" type="ped_pedestrian">
        <walk from="-29981289#3" to="220630715#1"/>
    </person>
    <person id="ped89" depart="420.37" type="ped_pedestrian">
        <walk from="179837471#4" to="230943664#1"/>
    </person>
    <person id="ped90" depart="425.09" type="ped_pedestrian">
        <walk from="711660839#1" to="621980075"/>
    </person>
    <person id="ped91" depart="429.81" type="ped_pedestrian">
        <walk from="959877247" to="-29981356#1"/>
    </person>
    <person id="ped92" depart="434.54" type="ped_pedestrian">
        <walk from="178646442" to="1148789532#1"/>
    </person>
    <person id="ped93" depart="439.26" type="ped_pedestrian">
        <walk from="743399458#0" to="-876522593#1"/>
    </person>
    <person id="ped94" depart="443.98" type="ped_pedestrian">
        <walk from="-712212607" to="220630727#12"/>
    </person>
    <person id="ped95" depart="448.71" type="ped_pedestrian">
        <walk from="179837469" to="100181053#1"/>
    </person>
    <person id="ped96" depart="453.43" type="ped_pedestrian">
        <walk from="-876522604#0" to="856483676"/>
    </person>
    <person id="ped97" depart="458.15" type="ped_pedestrian">
        <walk from="220630725" to="743399457#2"/>
    </person>
    <person id="ped98" depart="462.88" type="ped_pedestrian">
        <walk from="29420433#0" to="-232513054"/>
    </person>
    <person id="ped99" depart="467.60" type="ped_pedestrian">
        <walk from="99268567#1" to="732160607#0"/>
    </person>
    <person id="ped100" depart="472.32" type="ped_pedestrian">
        <walk from="95407249#1" to="856483678#4"/>
    </person>
    <person id="ped101" depart="477.05" type="ped_pedestrian">
        <walk from="739158594#14" to="-711665724#1"/>
    </person>
    <person id="ped102" depart="481.77" type="ped_pedestrian">
        <walk from="232513058#0" to="-739158594#8"/>
    </person>
    <person id="ped103" depart="486.49" type="ped_pedestrian">
        <walk from="178642958#5" to="-232575177#1"/>
    </person>
    <person id="ped104" depart="491.22" type="ped_pedestrian">
        <walk from="158522472#0" to="960123822"/>
    </person>
    <person id="ped105" depart="495.94" type="ped_pedestrian">
        <walk from="-95407249#4" to="711982670"/>
    </person>
    <person id="ped106" depart="500.66" type="ped_pedestrian">
        <walk from="225031404" to="179837471#2"/>
    </person>
    <person id="ped107" depart="505.39" type="ped_pedestrian">
        <walk from="927723647" to="991456780#6"/>
    </person>
    <person id="ped108" depart="510.11" type="ped_pedestrian">
        <walk from="29980162#1" to="711659099"/>
    </person>
    <person id="ped109" depart="514.83" type="ped_pedestrian">
        <walk from="-655241416#12" to="101725352#6"/>
    </person>
    <person id="ped110" depart="519.55" type="ped_pedestrian">
        <walk from="95407249#1" to="30000953#6"/>
    </person>
    <person id="ped111" depart="524.28" type="ped_pedestrian">
        <walk from="258766491" to="711665729#5"/>
    </person>
    <person id="ped112" depart="529.00" type="ped_pedestrian">
        <walk from="-232514320" to="30247029#4"/>
    </person>
    <person id="ped113" depart="533.72" type="ped_pedestrian">
        <walk from="232575177#4" to="739158594#5"/>
    </person>
    <person id="ped114" depart="538.45" type="ped_pedestrian">
        <walk from="-655241416#8" to="927753179#2"/>
    </person>
    <person id="ped115" depart="543.17" type="ped_pedestrian">
        <walk from="-299438852#2" to="-711989060#2"/>
    </person>
    <person id="ped116" depart="547.89" type="ped_pedestrian">
        <walk from="353612292#5" to="625832760#4"/>
    </person>
    <person id="ped117" depart="552.62" type="ped_pedestrian">
        <walk from="-848920761#1" to="-440989585"/>
    </person>
    <person id="ped118" depart="557.34" type="ped_pedestrian">
        <walk from="80615942" to="-876482806#2"/>
    </person>
    <person id="ped119" depart="562.06" type="ped_pedestrian">
        <walk from="353612292#1" to="421173847"/>
    </person>
    <person id="ped120" depart="566.79" type="ped_pedestrian">
        <walk from="178646460#3" to="30247029#1"/>
    </person>
    <person id="ped121" depart="571.51" type="ped_pedestrian">
        <walk from="233973550" to="871158798"/>
    </person>
    <person id="ped122" depart="576.23" type="ped_pedestrian">
        <walk from="-732160608" to="710632934"/>
    </person>
    <person id="ped123" depart="580.96" type="ped_pedestrian">
        <walk from="-875038028#1" to="178642949"/>
    </person>
    <person id="ped124" depart="585.68" type="ped_pedestrian">
        <walk from="586673818#0" to="101725355#1"/>
    </person>
    <person id="ped125" depart="590.40" type="ped_pedestrian">
        <walk from="1033722529" to="711665734#1"/>
    </person>
    <person id="ped126" depart="595.13" type="ped_pedestrian">
        <walk from="-249247717" to="225031410#2"/>
    </person>
    <person id="ped127" depart="599.85" type="ped_pedestrian">
        <walk from="99268563#1" to="991456780#8"/>
    </person>
    <person id="ped128" depart="604.57" type="ped_pedestrian">
        <walk from="-249247719" to="-739158594#6"/>
    </person>
    <person id="ped129" depart="609.30" type="ped_pedestrian">
        <walk from="-95407249#4" to="871158796#2"/>
    </person>
    <person id="ped130" depart="614.02" type="ped_pedestrian">
        <walk from="776311815#2" to="776311813#4"/>
    </person>
    <person id="ped131" depart="618.74" type="ped_pedestrian">
        <walk from="1192467249#0" to="-655241416#8"/>
    </person>
    <person id="ped132" depart="623.47" type="ped_pedestrian">
        <walk from="732160603#1" to="710628935#0"/>
    </person>
    <person id="ped133" depart="628.19" type="ped_pedestrian">
        <walk from="421173835#0" to="990174036"/>
    </person>
    <person id="ped134" depart="632.91" type="ped_pedestrian">
        <walk from="488961363" to="-106384414#1"/>
    </person>
    <person id="ped135" depart="637.64" type="ped_pedestrian">
        <walk from="724271237#2" to="101725354#6"/>
    </person>
    <person id="ped136" depart="642.36" type="ped_pedestrian">
        <walk from="489842586#0" to="876045673#1"/>
    </person>
    <person id="ped137" depart="647.08" type="ped_pedestrian">
        <walk from="-488952147#0" to="-38584626#4"/>
    </person>
    <person id="ped138" depart="651.80" type="ped_pedestrian">
        <walk from="-33241065#1" to="299438852#0"/>
    </person>
    <person id="ped139" depart="656.53" type="ped_pedestrian">
        <walk from="-990454513" to="38584626#1"/>
    </person>
    <person id="ped140" depart="661.25" type="ped_pedestrian">
        <walk from="711659097" to="-732160604#2"/>
    </person>
    <person id="ped141" depart="665.97" type="ped_pedestrian">
        <walk from="44170025#1" to="-95407249#11"/>
    </person>
    <person id="ped142" depart="670.70" type="ped_pedestrian">
        <walk from="232513061#4" to="844602939#1"/>
    </person>
    <person id="ped143" depart="675.42" type="ped_pedestrian">
        <walk from="739158592" to="-29981078#4"/>
    </person>
    <person id="ped144" depart="680.14" type="ped_pedestrian">
        <walk from="179837471#4" to="100180713#2"/>
    </person>
    <person id="ped145" depart="684.87" type="ped_pedestrian">
        <walk from="-1015314387" to="711982648#4"/>
    </person>
    <person id="ped146" depart="689.59" type="ped_pedestrian">
        <walk from="488928579" to="-95393880#2"/>
    </person>
    <person id="ped147" depart="694.31" type="ped_pedestrian">
        <walk from="711665725#4" to="299028695#3"/>
    </person>
    <person id="ped148" depart="699.04" type="ped_pedestrian">
        <walk from="203983267#0" to="-106384415#3"/>
    </person>
    <person id="ped149" depart="703.76" type="ped_pedestrian">
        <walk from="-260735459#2" to="776311817"/>
    </person>
    <person id="ped150" depart="708.48" type="ped_pedestrian">
        <walk from="843585495#0" to="260735459#4"/>
    </person>
    <person id="ped151" depart="713.21" type="ped_pedestrian">
        <walk from="732160603#3" to="30189674#1"/>
    </person>
    <person id="ped152" depart="717.93" type="ped_pedestrian">
        <walk from="-590376513" to="-488952092#0"/>
    </person>
    <person id="ped153" depart="722.65" type="ped_pedestrian">
        <walk from="102593661#8" to="843577438#0"/>
    </person>
    <person id="ped154" depart="727.38" type="ped_pedestrian">
        <walk from="712116540" to="743399457#1"/>
    </person>
    <person id="ped155" depart="732.10" type="ped_pedestrian">
        <walk from="843577438#0" to="-739158594#18"/>
    </person>
    <person id="ped156" depart="736.82" type="ped_pedestrian">
        <walk from="-876522598" to="-30189674#1"/>
    </person>
    <person id="ped157" depart="741.55" type="ped_pedestrian">
        <walk from="711982662#0" to="80615931#2"/>
    </person>
    <person id="ped158" depart="746.27" type="ped_pedestrian">
        <walk from="178646451#2" to="421173850"/>
    </person>
    <person id="ped159" depart="750.99" type="ped_pedestrian">
        <walk from="-655241416#11" to="870260405#0"/>
    </person>
    <person id="ped160" depart="755.72" type="ped_pedestrian">
        <walk from="743399463#0" to="95407255#4"/>
    </person>
    <person id="ped161" depart="760.44" type="ped_pedestrian">
        <walk from="713410952#0" to="776311815#3"/>
    </person>
    <person id="ped162" depart="765.16" type="ped_pedestrian">
        <walk from="-1192467266" to="711665718#3"/>
    </person>
    <person id="ped163" depart="769.89" type="ped_pedestrian">
        <walk from="110043962#0" to="870260406#0"/>
    </person>
    <person id="ped164" depart="774.61" type="ped_pedestrian">
        <walk from="712212595" to="743399462#1"/>
    </person>
    <person id="ped165" depart="779.33" type="ped_pedestrian">
        <walk from="713410952#0" to="-95407249#8"/>
    </person>
    <person id="ped166" depart="784.06" type="ped_pedestrian">
        <walk from="711982675#0" to="-346950388"/>
    </person>
    <person id="ped167" depart="788.78" type="ped_pedestrian">
        <walk from="772744596#1" to="739631213#2"/>
    </person>
    <person id="ped168" depart="793.50" type="ped_pedestrian">
        <walk from="-80615931#1" to="724271237#1"/>
    </person>
    <person id="ped169" depart="798.22" type="ped_pedestrian">
        <walk from="225031414#1" to="102593661#12"/>
    </person>
    <person id="ped170" depart="802.95" type="ped_pedestrian">
        <walk from="711989082" to="-80615934#8"/>
    </person>
    <person id="ped171" depart="807.67" type="ped_pedestrian">
        <walk from="-1192467254#0" to="-725276843#1"/>
    </person>
    <person id="ped172" depart="812.39" type="ped_pedestrian">
        <walk from="106384420" to="743399463#0"/>
    </person>
    <person id="ped173" depart="817.12" type="ped_pedestrian">
        <walk from="95393879#1" to="100181064#2"/>
    </person>
    <person id="ped174" depart="821.84" type="ped_pedestrian">
        <walk from="488952093" to="178642958#1"/>
    </person>
    <person id="ped175" depart="826.56" type="ped_pedestrian">
        <walk from="959877243#1" to="249247717"/>
    </person>
    <person id="ped176" depart="831.29" type="ped_pedestrian">
        <walk from="876045674" to="-38584626#4"/>
    </person>
    <person id="ped177" depart="836.01" type="ped_pedestrian">
        <walk from="95407249#3" to="-711982638#0"/>
    </person>
    <person id="ped178" depart="840.73" type="ped_pedestrian">
        <walk from="927815362#0" to="-95407249#5"/>
    </person>
    <person id="ped179" depart="845.46" type="ped_pedestrian">
        <walk from="-353612290#0" to="220630717#1"/>
    </person>
    <person id="ped180" depart="850.18" type="ped_pedestrian">
        <walk from="711660838#1" to="102593679#0"/>
    </person>
    <person id="ped181" depart="854.90" type="ped_pedestrian">
        <walk from="38584626#4" to="233208565#0"/>
    </person>
    <person id="ped182" depart="859.63" type="ped_pedestrian">
        <walk from="171801777" to="30000953#0"/>
    </person>
    <person id="ped183" depart="864.35" type="ped_pedestrian">
        <walk from="-927723620#1" to="710628943#1"/>
    </person>
    <person id="ped184" depart="869.07" type="ped_pedestrian">
        <walk from="-100180713#1" to="856483678#2"/>
    </person>
    <person id="ped185" depart="873.80" type="ped_pedestrian">
        <walk from="249518645" to="711659102"/>
    </person>
    <person id="ped186" depart="878.52" type="ped_pedestrian">
        <walk from="711665725#7" to="586673815#5"/>
    </person>
    <person id="ped187" depart="883.24" type="ped_pedestrian">
        <walk from="1190976257#0" to="-234992432#0"/>
    </person>
    <person id="ped188" depart="887.97" type="ped_pedestrian">
        <walk from="489842588" to="109986805"/>
    </person>
    <person id="ped189" depart="892.69" type="ped_pedestrian">
        <walk from="102593679#0" to="739158594#11"/>
    </person>
    <person id="ped190" depart="897.41" type="ped_pedestrian">
        <walk from="711659102" to="101725357"/>
    </person>
    <person id="ped191" depart="902.14" type="ped_pedestrian">
        <walk from="102593665#1" to="178646453#2"/>
    </person>
    <person id="ped192" depart="906.86" type="ped_pedestrian">
        <walk from="178646442" to="101725352#3"/>
    </person>
    <person id="ped193" depart="911.58" type="ped_pedestrian">
        <walk from="-488952092#0" to="178646460#6"/>
    </person>
    <person id="ped194" depart="916.31" type="ped_pedestrian">
        <walk from="876117881#0" to="651675646#0"/>
    </person>
    <person id="ped195" depart="921.03" type="ped_pedestrian">
        <walk from="843580606#1" to="421173840#2"/>
    </person>
    <person id="ped196" depart="925.75" type="ped_pedestrian">
        <walk from="101725359" to="260735462#1"/>
    </person>
    <person id="ped197" depart="930.48" type="ped_pedestrian">
        <walk from="-100180630#0" to="100985044#0"/>
    </person>
    <person id="ped198" depart="935.20" type="ped_pedestrian">
        <walk from="203983274#0" to="30000953#8"/>
    </person>
    <person id="ped199" depart="939.92" type="ped_pedestrian">
        <walk from="488961364" to="230940107#1"/>
    </person>
    <person id="ped200" depart="944.64" type="ped_pedestrian">
        <walk from="220630724#0" to="-739158594#8"/>
    </person>
    <person id="ped201" depart="949.37" type="ped_pedestrian">
        <walk from="232481154" to="843580597#2"/>
    </person>
    <person id="ped202" depart="954.09" type="ped_pedestrian">
        <walk from="711989595#1" to="-711665731"/>
    </person>
    <person id="ped203" depart="958.81" type="ped_pedestrian">
        <walk from="-29980169" to="233208573#1"/>
    </person>
    <person id="ped204" depart="963.54" type="ped_pedestrian">
        <walk from="44170024#1" to="112552239#1"/>
    </person>
    <person id="ped205" depart="968.26" type="ped_pedestrian">
        <walk from="724271238#2" to="711665734#0"/>
    </person>
    <person id="ped206" depart="972.98" type="ped_pedestrian">
        <walk from="586684120" to="-80615934#12"/>
    </person>
    <person id="ped207" depart="977.71" type="ped_pedestrian">
        <walk from="-726510657#2" to="-1192467265"/>
    </person>
    <person id="ped208" depart="982.43" type="ped_pedestrian">
        <walk from="-876469290#1" to="232481160"/>
    </person>
    <person id="ped209" depart="987.15" type="ped_pedestrian">
        <walk from="739158594#16" to="-249247718"/>
    </person>
    <person id="ped210" depart="991.88" type="ped_pedestrian">
        <walk from="178646456#3" to="440989584"/>
    </person>
    <person id="ped211" depart="996.60" type="ped_pedestrian">
        <walk from="-725276846" to="709578713#1"/>
    </person>
    <person id="ped212" depart="1001.32" type="ped_pedestrian">
        <walk from="232513071#1" to="-876124579#1"/>
    </person>
    <person id="ped213" depart="1006.05" type="ped_pedestrian">
        <walk from="489022068" to="-102593674#1"/>
    </person>
    <person id="ped214" depart="1010.77" type="ped_pedestrian">
        <walk from="711665732#1" to="711982648#2"/>
    </person>
    <person id="ped215" depart="1015.49" type="ped_pedestrian">
        <walk from="-33241065#0" to="182133234#2"/>
    </person>
    <person id="ped216" depart="1020.22" type="ped_pedestrian">
        <walk from="-711971173#1" to="927723654"/>
    </person>
    <person id="ped217" depart="1024.94" type="ped_pedestrian">
        <walk from="233209433#0" to="-232513048"/>
    </person>
    <person id="ped218" depart="1029.66" type="ped_pedestrian">
        <walk from="-876522594" to="739158594#12"/>
    </person>
    <person id="ped219" depart="1034.39" type="ped_pedestrian">
        <walk from="225031409#0" to="712212592"/>
    </person>
    <person id="ped220" depart="1039.11" type="ped_pedestrian">
        <walk from="53879361" to="990174749#1"/>
    </person>
    <person id="ped221" depart="1043.83" type="ped_pedestrian">
        <walk from="36961039#0" to="878405103#1"/>
    </person>
    <person id="ped222" depart="1048.56" type="ped_pedestrian">
        <walk from="83038734" to="421173836#1"/>
    </person>
    <person id="ped223" depart="1053.28" type="ped_pedestrian">
        <walk from="711659101" to="232575181#3"/>
    </person>
    <person id="ped224" depart="1058.00" type="ped_pedestrian">
        <walk from="726509440#3" to="260735462#1"/>
    </person>
    <person id="ped225" depart="1062.73" type="ped_pedestrian">
        <walk from="843577433#3" to="711665726#2"/>
    </person>
    <person id="ped226" depart="1067.45" type="ped_pedestrian">
        <walk from="232481158#2" to="-927723652"/>
    </person>
    <person id="ped227" depart="1072.17" type="ped_pedestrian">