<?xml version="1.0" encoding="UTF-8"?>

<!-- generated on 2023-11-30 16:19:10.078104 by osmWebWizard.py UNKNOWN
<configuration>
    <net-file value="/opt/homebrew/Cellar/sumo/1.18.0/share/sumo/tools/2023-11-30-16-18-30/osm.net.xml.gz"/>
    <output-trip-file value="/opt/homebrew/Cellar/sumo/1.18.0/share/sumo/tools/2023-11-30-16-18-30/osm.truck.trips.xml"/>
    <route-file value="/opt/homebrew/Cellar/sumo/1.18.0/share/sumo/tools/2023-11-30-16-18-30/osm.truck.rou.xml"/>
    <prefix value="truck"/>
    <trip-attributes value="departLane=&quot;best&quot;"/>
    <fringe-start-attributes value="departSpeed=&quot;max&quot;"/>
    <vehicle-class value="truck"/>
    <fringe-factor value="2"/>
    <vclass value="truck"/>
    <via-edge-types value="highway.motorway,highway.motorway_link,highway.trunk_link,highway.primary_link,highway.secondary_link,highway.tertiary_link"/>
    <min-distance value="600.0"/>
    <min-distance.fringe value="10.0"/>
    <remove-loops value="True"/>
    <validate value="True"/>
    <insertion-density value="2.0"/>
</configuration>
-->

<!-- generated on 2023-11-30 16:19:08 by Eclipse SUMO duarouter Version 1.18.0
<configuration xmlns:xsi="http://www.w3.org/2001/XMLSchema-instance" xsi:noNamespaceSchemaLocation="http://sumo.dlr.de/xsd/duarouterConfiguration.xsd">

    <input>
        <net-file value="/opt/homebrew/Cellar/sumo/1.18.0/share/sumo/tools/2023-11-30-16-18-30/osm.net.xml.gz"/>
        <route-files value="/opt/homebrew/Cellar/sumo/1.18.0/share/sumo/tools/2023-11-30-16-18-30/osm.truck.trips.xml"/>
    </input>

    <output>
        <output-file value="/opt/homebrew/Cellar/sumo/1.18.0/share/sumo/tools/2023-11-30-16-18-30/osm.truck.trips.xml.tmp"/>
        <alternatives-output value="NUL"/>
        <write-trips value="true"/>
    </output>

    <processing>
        <remove-loops value="true"/>
    </processing>

    <time>
        <begin value="0.0"/>
        <end value="3600.0"/>
    </time>

    <report>
        <no-warnings value="true"/>
        <ignore-errors value="true"/>
        <no-step-log value="true"/>
    </report>

</configuration>
-->

<routes xmlns:xsi="http://www.w3.org/2001/XMLSchema-instance" xsi:noNamespaceSchemaLocation="http://sumo.dlr.de/xsd/routes_file.xsd">
    <vType id="truck_truck" vClass="truck"/>
    <trip id="truck0" type="truck_truck" depart="0.00" departLane="best" from="29980918#3" to="-115479070#1"/>
    <trip id="truck1" type="truck_truck" depart="2.15" departLane="best" from="-29981391#0" to="-29981201#17"/>
    <trip id="truck2" type="truck_truck" depart="4.29" departLane="best" from="29981245#2" to="29981117#3"/>
    <trip id="truck3" type="truck_truck" depart="6.44" departLane="best" from="-651777229#3" to="223748000#0"/>
    <trip id="truck4" type="truck_truck" depart="8.59" departLane="best" from="-82678882#4" to="-1210968859"/>
    <trip id="truck5" type="truck_truck" depart="10.73" departLane="best" from="-29981195#2" to="223010779"/>
    <trip id="truck6" type="truck_truck" depart="12.88" departLane="best" from="-1134764504#1" to="29981096#4"/>
    <trip id="truck7" type="truck_truck" depart="15.03" departLane="best" from="-29981198#1" to="299715510#0"/>
    <trip id="truck8" type="truck_truck" depart="17.17" departLane="best" from="-320452495#1" to="1068483516"/>
    <trip id="truck9" type="truck_truck" depart="19.32" departLane="best" from="300698757" to="29981196#5"/>
    <trip id="truck10" type="truck_truck" depart="21.47" departLane="best" from="-404725952#1" to="-29980964#8"/>
    <trip id="truck11" type="truck_truck" depart="23.61" departLane="best" from="954026227#0" to="-448203096#1"/>
    <trip id="truck12" type="truck_truck" depart="25.76" departLane="best" from="-249341601#6" to="-23034490"/>
    <trip id="truck13" type="truck_truck" depart="27.90" departLane="best" from="414183058" to="29980908#10"/>
    <trip id="truck14" type="truck_truck" depart="30.05" departLane="best" from="223105068#0" to="-975415076"/>
    <trip id="truck15" type="truck_truck" depart="32.20" departLane="best" from="-651675640#6" to="-237523990#3"/>
    <trip id="truck16" type="truck_truck" depart="34.34" departLane="best" from="-34614069#0" to="29980950#0"/>
    <trip id="truck17" type="truck_truck" depart="36.49" departLane="best" from="-488952059#1" to="-29394227#9"/>
    <trip id="truck18" type="truck_truck" depart="38.64" departLane="best" from="-29981117#8" to="-147910952#3"/>
    <trip id="truck19" type="truck_truck" depart="40.78" departLane="best" from="-29981223#0" to="30008523#2"/>
    <trip id="truck20" type="truck_truck" depart="42.93" departLane="best" from="223600263#5" to="-29981236#1"/>
    <trip id="truck21" type="truck_truck" depart="45.08" departLane="best" from="-29202680#6" to="29981401#1"/>
    <trip id="truck22" type="truck_truck" depart="47.22" departLane="best" from="29980908#4" to="-651675647#1"/>
    <trip id="truck23" type="truck_truck" depart="49.37" departLane="best" departSpeed="max" from="-571306197" to="-29981145#5"/>
    <trip id="truck24" type="truck_truck" depart="51.52" departLane="best" from="-29981371#1" to="-82164708#6"/>
    <trip id="truck25" type="truck_truck" depart="53.66" departLane="best" from="29980946#7" to="29980920#6"/>
    <trip id="truck26" type="truck_truck" depart="55.81" departLane="best" from="29981028#2" to="-171769420"/>
    <trip id="truck27" type="truck_truck" depart="57.96" departLane="best" departSpeed="max" from="-29981008" to="583357521#2"/>
    <trip id="truck28" type="truck_truck" depart="60.10" departLane="best" from="975401573#0" to="29981009#3"/>
    <trip id="truck29" type="truck_truck" depart="62.25" departLane="best" from="223572251#0" to="29981148#4"/>
    <trip id="truck30" type="truck_truck" depart="64.40" departLane="best" from="-38584626#4" to="30009373#0"/>
    <trip id="truck31" type="truck_truck" depart="66.54" departLane="best" from="-29981227#4" to="-125133260"/>
    <trip id="truck32" type="truck_truck" depart="68.69" departLane="best" from="-32119073#3" to="-29981374#8"/>
    <trip id="truck33" type="truck_truck" depart="70.84" departLane="best" departSpeed="max" from="-29981167#3" to="83194384#0"/>
    <trip id="truck34" type="truck_truck" depart="72.98" departLane="best" from="568629062#0" to="-34614057#11"/>
    <trip id="truck35" type="truck_truck" depart="75.13" departLane="best" from="29980969#0" to="79871497#0"/>
    <trip id="truck36" type="truck_truck" depart="77.28" departLane="best" from="-721027337#0" to="1133834857#0"/>
    <trip id="truck37" type="truck_truck" depart="79.42" departLane="best" from="29981364#2" to="-29981283#5"/>
    <trip id="truck38" type="truck_truck" depart="81.57" departLane="best" from="223586492#4" to="1068483511"/>
    <trip id="truck39" type="truck_truck" depart="83.71" departLane="best" from="247865720" to="657956275#0"/>
    <trip id="truck40" type="truck_truck" depart="85.86" departLane="best" from="659335887#0" to="29981191#1"/>
    <trip id="truck41" type="truck_truck" depart="88.01" departLane="best" from="997959486#0" to="-223105067#3"/>
    <trip id="truck42" type="truck_truck" depart="90.15" departLane="best" from="-237523989#4" to="172675461"/>
    <trip id="truck43" type="truck_truck" depart="92.30" departLane="best" from="-29394251#1" to="29980975#0"/>
    <trip id="truck44" type="truck_truck" depart="94.45" departLane="best" from="-30008228#2" to="1001559570#2"/>
    <trip id="truck45" type="truck_truck" depart="96.59" departLane="best" from="223138921#5" to="677284639#2"/>
    <trip id="truck46" type="truck_truck" depart="98.74" departLane="best" from="731752844#0" to="223572243#2"/>
    <trip id="truck47" type="truck_truck" depart="100.89" departLane="best" from="975401567" to="515204969"/>
    <trip id="truck48" type="truck_truck" depart="103.03" departLane="best" departSpeed="max" from="-1068424266#2" to="29981268#11"/>
    <trip id="truck49" type="truck_truck" depart="105.18" departLane="best" from="29981041#2" to="223600259#0"/>
    <trip id="truck50" type="truck_truck" depart="107.33" departLane="best" from="-29981370#8" to="-29981013#5"/>
    <trip id="truck51" type="truck_truck" depart="109.47" departLane="best" from="-29448465#4" to="1068342564#0"/>
    <trip id="truck52" type="truck_truck" depart="111.62" departLane="best" from="1068342551#0" to="954026217#1"/>
    <trip id="truck53" type="truck_truck" depart="113.77" departLane="best" from="568600348" to="-29981360#2"/>
    <trip id="truck54" type="truck_truck" depart="115.91" departLane="best" departSpeed="max" from="126777033#0" to="-29981029#4"/>
    <trip id="truck55" type="truck_truck" depart="118.06" departLane="best" from="715905363#0" to="-583357519#1"/>
    <trip id="truck56" type="truck_truck" depart="120.21" departLane="best" from="-30067638#8" to="29981007#0"/>
    <trip id="truck57" type="truck_truck" depart="122.35" departLane="best" from="29981333#5" to="223600264#0"/>
    <trip id="truck58" type="truck_truck" depart="124.50" departLane="best" from="-29981389#2" to="919352328#0"/>
    <trip id="truck59" type="truck_truck" depart="126.65" departLane="best" from="1004129376#0" to="-375367286#0"/>
    <trip id="truck60" type="truck_truck" depart="128.79" departLane="best" from="-109986799#3" to="753399161#0"/>
    <trip id="truck61" type="truck_truck" depart="130.94" departLane="best" from="-585404519#0" to="40945440"/>
    <trip id="truck62" type="truck_truck" depart="133.08" departLane="best" departSpeed="max" from="-32115767#1" to="-221338716#1"/>
    <trip id="truck64" type="truck_truck" depart="137.38" departLane="best" departSpeed="max" from="-224706639#2" to="147910928"/>
    <trip id="truck65" type="truck_truck" depart="139.52" departLane="best" from="223456898#3" to="29981401#6"/>
    <trip id="truck66" type="truck_truck" depart="141.67" departLane="best" from="29981350#0" to="29980877#8"/>
    <trip id="truck67" type="truck_truck" depart="143.82" departLane="best" from="1117437218" to="228110114#0"/>
    <trip id="truck69" type="truck_truck" depart="148.11" departLane="best" from="-223138918#1" to="29981296#15"/>
    <trip id="truck70" type="truck_truck" depart="150.26" departLane="best" departSpeed="max" from="-29981128" to="-32119075#0"/>
    <trip id="truck71" type="truck_truck" depart="152.40" departLane="best" from="997896366#0" to="29981034#3"/>
    <trip id="truck72" type="truck_truck" depart="154.55" departLane="best" from="-995872982#0" to="223177067#7"/>
    <trip id="truck73" type="truck_truck" depart="156.70" departLane="best" from="29980881#7" to="-29981206#1"/>
    <trip id="truck74" type="truck_truck" depart="158.84" departLane="best" from="40100737#5" to="-299288296#4"/>
    <trip id="truck75" type="truck_truck" depart="160.99" departLane="best" from="-29981231#2" to="-29981195#2"/>
    <trip id="truck76" type="truck_truck" depart="163.14" departLane="best" from="223456899#9" to="-29980984#1"/>
    <trip id="truck77" type="truck_truck" depart="165.28" departLane="best" from="-29981227#4" to="677284641#0"/>
    <trip id="truck78" type="truck_truck" depart="167.43" departLane="best" from="467787846#2" to="223456893"/>
    <trip id="truck79" type="truck_truck" depart="169.58" departLane="best" from="-29981259#1" to="29981091#0"/>
    <trip id="truck80" type="truck_truck" depart="171.72" departLane="best" from="-79901115#4" to="29377914#0"/>
    <trip id="truck81" type="truck_truck" depart="173.87" departLane="best" from="-1110533939" to="30089513#0"/>
    <trip id="truck82" type="truck_truck" depart="176.02" departLane="best" from="-261463335#2" to="103916809#0"/>
    <trip id="truck83" type="truck_truck" depart="178.16" departLane="best" from="-829973540" to="1185676075#1"/>
    <trip id="truck84" type="truck_truck" depart="180.31" departLane="best" from="-29981217#2" to="29981107#0"/>
    <trip id="truck85" type="truck_truck" depart="182.45" departLane="best" from="995867941#0" to="-241929187"/>
    <trip id="truck86" type="truck_truck" depart="184.60" departLane="best" from="-677284639#5" to="45818329#3"/>
    <trip id="truck87" type="truck_truck" depart="186.75" departLane="best" from="-488952059#1" to="-29981292#2"/>
    <trip id="truck88" type="truck_truck" depart="188.89" departLane="best" from="-29981089#3" to="-1097212481#5"/>
    <trip id="truck89" type="truck_truck" depart="191.04" departLane="best" from="-82678882#4" to="-29981401#8"/>
    <trip id="truck90" type="truck_truck" depart="193.19" departLane="best" departSpeed="max" from="-29981295#1" to="733997171#2"/>
    <trip id="truck91" type="truck_truck" depart="195.33" departLane="best" from="-1001559570#4" to="515597716#0"/>
    <trip id="truck92" type="truck_truck" depart="197.48" departLane="best" from="-223462576#3" to="-203272128#2"/>
    <trip id="truck93" type="truck_truck" depart="199.63" departLane="best" from="998323891#0" to="425430303"/>
    <trip id="truck94" type="truck_truck" depart="201.77" departLane="best" from="975401554" to="749061308#0"/>
    <trip id="truck95" type="truck_truck" depart="203.92" departLane="best" departSpeed="max" from="425430250#0" to="-29981001#6"/>
    <trip id="truck96" type="truck_truck" depart="206.07" departLane="best" from="1185676074#0" to="29981163#9"/>
    <trip id="truck97" type="truck_truck" depart="208.21" departLane="best" from="-673191184#2" to="-222848428#1"/>
    <trip id="truck98" type="truck_truck" depart="210.36" departLane="best" departSpeed="max" from="-651675644#1" to="975401540#1"/>
    <trip id="truck99" type="truck_truck" depart="212.51" departLane="best" from="-29981365#0" to="300698759"/>
    <trip id="truck100" type="truck_truck" depart="214.65" departLane="best" from="-1068342560#2" to="1004463145#0"/>
    <trip id="truck101" type="truck_truck" depart="216.80" departLane="best" from="954026227#0" to="997899555"/>
    <trip id="truck102" type="truck_truck" depart="218.95" departLane="best" from="223572244#6" to="29981264#0"/>
    <trip id="truck103" type="truck_truck" depart="221.09" departLane="best" departSpeed="max" from="-29980981#8" to="-30067638#2"/>
    <trip id="truck104" type="truck_truck" depart="223.24" departLane="best" from="975401552#0" to="29394264#1"/>
    <trip id="truck105" type="truck_truck" depart="225.39" departLane="best" from="223138927#0" to="29981372#0"/>
    <trip id="truck106" type="truck_truck" depart="227.53" departLane="best" from="-223010782#0" to="295143807#2"/>
    <trip id="truck107" type="truck_truck" depart="229.68" departLane="best" departSpeed="max" from="126777047#0" to="489023479#1"/>
    <trip id="truck108" type="truck_truck" depart="231.83" departLane="best" departSpeed="max" from="-29980990#1" to="-954026266#1"/>
    <trip id="truck109" type="truck_truck" depart="233.97" departLane="best" from="261675866" to="29981112#1"/>
    <trip id="truck110" type="truck_truck" depart="236.12" departLane="best" from="29981251#8" to="29448465#0"/>
    <trip id="truck111" type="truck_truck" depart="238.26" departLane="best" from="651675642#0" to="-29981283#1"/>
    <trip id="truck112" type="truck_truck" depart="240.41" departLane="best" from="261675855#0" to="-29980951#27"/>
    <trip id="truck113" type="truck_truck" depart="242.56" departLane="best" from="-816420282#3" to="29448473#1"/>
    <trip id="truck114" type="truck_truck" depart="244.70" departLane="best" departSpeed="max" from="203983268#0" to="808841696#0"/>
    <trip id="truck115" type="truck_truck" depart="246.85" departLane="best" from="-29981144#1" to="29981257#0"/>
    <trip id="truck116" type="truck_truck" depart="249.00" departLane="best" from="-29981263#4" to="79901115#0"/>
    <trip id="truck117" type="truck_truck" depart="251.14" departLane="best" from="29981016#0" to="-30276468#4"/>
    <trip id="truck118" type="truck_truck" depart="253.29" departLane="best" from="-32119074#3" to="29981382"/>
    <trip id="truck119" type="truck_truck" depart="255.44" departLane="best" from="-223462578#9" to="1133834855#0"/>
    <trip id="truck120" type="truck_truck" depart="257.58" departLane="best" from="-223505199" to="-29981160#2"/>
    <trip id="truck121" type="truck_truck" depart="259.73" departLane="best" from="29981365#0" to="776304758"/>
    <trip id="truck122" type="truck_truck" depart="261.88" departLane="best" from="585404511" to="648762771#2"/>
    <trip id="truck123" type="truck_truck" depart="264.02" departLane="best" departSpeed="max" from="-571259779#1" to="29980974#3"/>
    <trip id="truck124" type="truck_truck" depart="266.17" departLane="best" from="-35785876#3" to="29981213#0"/>
    <trip id="truck125" type="truck_truck" depart="268.32" departLane="best" from="29394280" to="996549294#0"/>
    <trip id="truck126" type="truck_truck" depart="270.46" departLane="best" from="29980964#7" to="-1068342562#2"/>
    <trip id="truck127" type="truck_truck" depart="272.61" departLane="best" from="32118571#4" to="-30149368#3"/>
    <trip id="truck128" type="truck_truck" depart="274.76" departLane="best" from="-29980994#8" to="-825243466#5"/>
    <trip id="truck129" type="truck_truck" depart="276.90" departLane="best" from="-29980920#5" to="29394219#0"/>
    <trip id="truck130" type="truck_truck" depart="279.05" departLane="best" from="-29394219#3" to="244727543#0"/>
    <trip id="truck131" type="truck_truck" depart="281.20" departLane="best" departSpeed="max" from="-29981386#5" to="29980909#0"/>
    <trip id="truck132" type="truck_truck" depart="283.34" departLane="best" from="-29981177#6" to="29981117#2"/>
    <trip id="truck133" type="truck_truck" depart="285.49" departLane="best" from="29980904#2" to="-29981362#1"/>
    <trip id="truck134" type="truck_truck" depart="287.63" departLane="best" from="1215854952#0" to="677284640#2"/>
    <trip id="truck135" type="truck_truck" depart="289.78" departLane="best" departSpeed="max" from="40945525#0" to="225648631#0"/>
    <trip id="truck136" type="truck_truck" depart="291.93" departLane="best" from="-829973540" to="29981399#2"/>
    <trip id="truck137" type="truck_truck" depart="294.07" departLane="best" from="-1033622464#6" to="-30008228#9"/>
    <trip id="truck138" type="truck_truck" depart="296.22" departLane="best" from="29980913#2" to="-29981351#0"/>
    <trip id="truck139" type="truck_truck" depart="298.37" departLane="best" from="29981260#3" to="997415151#0"/>
    <trip id="truck140" type="truck_truck" depart="300.51" departLane="best" from="954026217#3" to="1068418708"/>
    <trip id="truck141" type="truck_truck" depart="302.66" departLane="best" from="-223572258" to="651764606"/>
    <trip id="truck142" type="truck_truck" depart="304.81" departLane="best" from="658245251#3" to="223802977#4"/>
    <trip id="truck143" type="truck_truck" depart="306.95" departLane="best" from="364967601" to="29448470#3"/>
    <trip id="truck144" type="truck_truck" depart="309.10" departLane="best" from="-29980964#6" to="-29980874#4"/>
    <trip id="truck145" type="truck_truck" depart="311.25" departLane="best" departSpeed="max" from="-32117925" to="657956277#1"/>
    <trip id="truck146" type="truck_truck" depart="313.39" departLane="best" from="-30009272#17" to="515204969"/>
    <trip id="truck147" type="truck_truck" depart="315.54" departLane="best" from="655093174#1" to="-29981145#8"/>
    <trip id="truck148" type="truck_truck" depart="317.69" departLane="best" from="-29981295#0" to="29981306#3"/>
    <trip id="truck149" type="truck_truck" depart="319.83" departLane="best" from="29981392#3" to="651792584#3"/>
    <trip id="truck150" type="truck_truck" depart="321.98" departLane="best" from="-715905364#2" to="29980957#14"/>
    <trip id="truck151" type="truck_truck" depart="324.13" departLane="best" from="29980981#7" to="758183999#2"/>
    <trip id="truck152" type="truck_truck" depart="326.27" departLane="best" from="489030319#0" to="975415095#1"/>
    <trip id="truck153" type="truck_truck" depart="328.42" departLane="best" from="-29981267#9" to="-651675643#1"/>
    <trip id="truck154" type="truck_truck" depart="330.57" departLane="best" from="-375367284" to="-762706723#1"/>
    <trip id="truck155" type="truck_truck" depart="332.71" departLane="best" from="-30020038#5" to="549173651#0"/>
    <trip id="truck156" type="truck_truck" depart="334.86" departLane="best" from="-29981267#9" to="-29981371#0"/>
    <trip id="truck157" type="truck_truck" depart="337.00" departLane="best" from="-29981416#7" to="-266423723#2"/>
    <trip id="truck158" type="truck_truck" depart="339.15" departLane="best" from="517723469#2" to="5121141"/>
    <trip id="truck159" type="truck_truck" depart="341.30" departLane="best" departSpeed="max" from="-29981203#1" to="35785871#0"/>
    <trip id="truck160" type="truck_truck" depart="343.44" departLane="best" from="1068573661#0" to="-32117924#3"/>
    <trip id="truck161" type="truck_truck" depart="345.59" departLane="best" from="-30009272#12" to="29981217#5"/>
    <trip id="truck162" type="truck_truck" depart="347.74" departLane="best" departSpeed="max" from="-1117493507#3" to="-29981082#3"/>
    <trip id="truck163" type="truck_truck" depart="349.88" departLane="best" departSpeed="max" from="-362095708#2" to="554844132"/>
    <trip id="truck164" type="truck_truck" depart="352.03" departLane="best" from="223105075#2" to="-29981402#5"/>
    <trip id="truck165" type="truck_truck" depart="354.18" departLane="best" from="29980920#5" to="827439974#5"/>
    <trip id="truck166" type="truck_truck" depart="356.32" departLane="best" from="975415122" to="223592931#0"/>
    <trip id="truck167" type="truck_truck" depart="358.47" departLane="best" from="825243466#3" to="29394219#0"/>
    <trip id="truck168" type="truck_truck" depart="360.62" departLane="best" from="-975401564" to="-29981029#4"/>
    <trip id="truck169" type="truck_truck" depart="362.76" departLane="best" from="96241846#0" to="-29981365#3"/>
    <trip id="truck170" type="truck_truck" depart="364.91" departLane="best" from="29394227#3" to="1068342561#0"/>
    <trip id="truck171" type="truck_truck" depart="367.06" departLane="best" from="-29981214#1" to="-34612890#0"/>
    <trip id="truck172" type="truck_truck" depart="369.20" departLane="best" from="29394200#0" to="223105074#7"/>
    <trip id="truck173" type="truck_truck" depart="371.35" departLane="best" departSpeed="max" from="-652024327#1" to="-29394227#2"/>
    <trip id="truck174" type="truck_truck" depart="373.50" departLane="best" from="-29981312#1" to="29981233#0"/>
    <trip id="truck175" type="truck_truck" depart="375.64" departLane="best" from="-102555223" to="583357520#2"/>
    <trip id="truck176" type="truck_truck" depart="377.79" departLane="best" from="223105076" to="29981267#11"/>
    <trip id="truck177" type="truck_truck" depart="379.94" departLane="best" from="29981263#5" to="29981096#10"/>
    <trip id="truck178" type="truck_truck" depart="382.08" departLane="best" from="-514017206#2" to="-223203426#1"/>
    <trip id="truck179" type="truck_truck" depart="384.23" departLane="best" from="29980997#0" to="-404715752#2"/>
    <trip id="truck180" type="truck_truck" depart="386.38" departLane="best" departSpeed="max" from="-32119070#1" to="475043940"/>
    <trip id="truck181" type="truck_truck" depart="388.52" departLane="best" from="-29981185#0" to="317162575#1"/>
    <trip id="truck182" type="truck_truck" depart="390.67" departLane="best" departSpeed="max" from="-32117933#2" to="-97213546"/>
    <trip id="truck183" type="truck_truck" depart="392.81" departLane="best" from="-677284639#0" to="-30020330#1"/>
    <trip id="truck184" type="truck_truck" depart="394.96" departLane="best" from="-29980903#6" to="-997896366#3"/>
    <trip id="truck185" type="truck_truck" depart="397.11" departLane="best" from="827439971#7" to="29981119#0"/>
    <trip id="truck186" type="truck_truck" depart="399.25" departLane="best" departSpeed="max" from="657956286#0" to="29980940#10"/>
    <trip id="truck187" type="truck_truck" depart="401.40" departLane="best" from="-30149366#6" to="-225398820#3"/>
    <trip id="truck188" type="truck_truck" depart="403.55" departLane="best" from="-1001559571#1" to="-30008228#5"/>
    <trip id="truck189" type="truck_truck" depart="405.69" departLane="best" from="975401551#0" to="29394275#0"/>
    <trip id="truck190" type="truck_truck" depart="407.84" departLane="best" from="-29980968#6" to="1183718360#1"/>
    <trip id="truck191" type="truck_truck" depart="409.99" departLane="best" from="-997899556" to="29981163#9"/>
    <trip id="truck192" type="truck_truck" depart="412.13" departLane="best" from="1115335852" to="658245252#3"/>
    <trip id="truck193" type="truck_truck" depart="414.28" departLane="best" from="-30009272#17" to="-29981009#7"/>
    <trip id="truck194" type="truck_truck" depart="416.43" departLane="best" from="-29980901#10" to="437962725"/>
    <trip id="truck195" type="truck_truck" depart="418.57" departLane="best" from="-32119063#3" to="29981379#0"/>
    <trip id="truck196" type="truck_truck" depart="420.72" departLane="best" from="29981017#1" to="29981206#0"/>
    <trip id="truck197" type="truck_truck" depart="422.87" departLane="best" from="-29981117#10" to="1139719916#0"/>
    <trip id="truck198" type="truck_truck" depart="425.01" departLane="best" from="-29981279#3" to="1225257624"/>
    <trip id="truck199" type="truck_truck" depart="427.16" departLane="best" from="42944511#2" to="-223456899#1"/>
    <trip id="truck200" type="truck_truck" depart="429.31" departLane="best" from="-753581049#11" to="29980981#2"/>
    <trip id="truck201" type="truck_truck" depart="431.45" departLane="best" from="-29981096#9" to="29981194#0"/>
    <trip id="truck202" type="truck_truck" depart="433.60" departLane="best" from="1225257624" to="-29981268#3"/>
    <trip id="truck203" type="truck_truck" depart="435.75" departLane="best" from="29980974#0" to="-103916809#5"/>
    <trip id="truck204" type="truck_truck" depart="437.89" departLane="best" departSpeed="max" from="29981286#0" to="30008228#10"/>
    <trip id="truck205" type="truck_truck" depart="440.04" departLane="best" from="-29394197#0" to="1033620735"/>
    <trip id="truck206" type="truck_truck" depart="442.18" departLane="best" from="-29981041#1" to="954026237#0"/>
    <trip id="truck207" type="truck_truck" depart="444.33" departLane="best" from="203272126#0" to="192640537#0"/>
    <trip id="truck208" type="truck_truck" depart="446.48" departLane="best" from="-29981293#6" to="477922661#0"/>
    <trip id="truck209" type="truck_truck" depart="448.62" departLane="best" from="-1068358597" to="-32119073#17"/>
    <trip id="truck210" type="truck_truck" depart="450.77" departLane="best" from="29981006#3" to="997381417#1"/>
    <trip id="truck211" type="truck_truck" depart="452.92" departLane="best" departSpeed="max" from="265482616#0" to="919352328#0"/>
    <trip id="truck212" type="truck_truck" depart="455.06" departLane="best" from="-651764605#12" to="-29980932#0"/>
    <trip id="truck213" type="truck_truck" depart="457.21" departLane="best" from="-34614075#12" to="-225398820#3"/>
    <trip id="truck214" type="truck_truck" depart="459.36" departLane="best" from="654504625#2" to="29981357#0"/>
    <trip id="truck215" type="truck_truck" depart="461.50" departLane="best" from="1117437213" to="-29981340#0"/>
    <trip id="truck216" type="truck_truck" depart="463.65" departLane="best" from="29981285#0" to="29981003#5"/>
    <trip id="truck217" type="truck_truck" depart="465.80" departLane="best" from="29981350#0" to="-223456898#1"/>
    <trip id="truck218" type="truck_truck" depart="467.94" departLane="best" from="29980880#5" to="-29981391#1"/>
    <trip id="truck219" type="truck_truck" depart="470.09" departLane="best" from="223586492#1" to="-30008226#4"/>
    <trip id="truck220" type="truck_truck" depart="472.24" departLane="best" from="-29981385#5" to="-35742163#1"/>
    <trip id="truck221" type="truck_truck" depart="474.38" departLane="best" from="223138921#0" to="29980908#8"/>
    <trip id="truck222" type="truck_truck" depart="476.53" departLane="best" departSpeed="max" from="-29981237#1" to="-29981184#4"/>
    <trip id="truck223" type="truck_truck" depart="478.68" departLane="best" from="-29981130#23" to="-223105068#4"/>
    <trip id="truck224" type="truck_truck" depart="480.82" departLane="best" departSpeed="max" from="-720109986#5" to="223747990#0"/>
    <trip id="truck225" type="truck_truck" depart="482.97" departLane="best" departSpeed="max" from="-760826310#2" to="-29981139#1"/>
    <trip id="truck226" type="truck_truck" depart="485.12" departLane="best" from="-82164708#3" to="675373975#0"/>
    <trip id="truck227" type="truck_truck" depart="487.26" departLane="best" from="247830346" to="29981191#1"/>
    <trip id="truck228" type="truck_truck" depart="489.41" departLane="best" from="-45818329#4" to="30000947#0"/>
    <trip id="truck229" type="truck_truck" depart="491.56" departLane="best" departSpeed="max" from="-467779490" to="29981386#3"/>
    <trip id="truck230" type="truck_truck" depart="493.70" departLane="best" from="448187747" to="945753338#5"/>
    <trip id="truck231" type="truck_truck" depart="495.85" departLane="best" from="-816420282#2" to="29981370#6"/>
    <trip id="truck232" type="truck_truck" depart="497.99" departLane="best" from="-223456895#1" to="29980907#1"/>
    <trip id="truck233" type="truck_truck" depart="500.14" departLane="best" from="-29981198#2" to="-29981191#6"/>
    <trip id="truck234" type="truck_truck" depart="502.29" departLane="best" from="-975415108" to="1190889944#0"/>
    <trip id="truck235" type="truck_truck" depart="504.43" departLane="best" from="-385114873" to="29981130#19"/>
    <trip id="truck236" type="truck_truck" depart="506.58" departLane="best" departSpeed="max" from="-694104730" to="-29980995#5"/>
    <trip id="truck237" type="truck_truck" depart="508.73" departLane="best" from="1096352521#0" to="29980876#0"/>
    <trip id="truck238" type="truck_truck" depart="510.87" departLane="best" from="29974102" to="-1183718360#8"/>
    <trip id="truck239" type="truck_truck" depart="513.02" departLane="best" from="-657956272#5" to="27096547#5"/>