<?xml version="1.0" encoding="UTF-8"?>

<!-- generated on 2023-11-30 16:18:51.788739 by osmWebWizard.py UNKNOWN
<configuration>
    <net-file value="/opt/homebrew/Cellar/sumo/1.18.0/share/sumo/tools/2023-11-30-16-18-30/osm.net.xml.gz"/>
    <output-trip-file value="/opt/homebrew/Cellar/sumo/1.18.0/share/sumo/tools/2023-11-30-16-18-30/osm.bus.trips.xml"/>
    <route-file value="/opt/homebrew/Cellar/sumo/1.18.0/share/sumo/tools/2023-11-30-16-18-30/osm.bus.rou.xml"/>
    <prefix value="bus"/>
    <trip-attributes value="departLane=&quot;best&quot;"/>
    <fringe-start-attributes value="departSpeed=&quot;max&quot;"/>
    <vehicle-class value="bus"/>
    <fringe-factor value="3"/>
    <vclass value="bus"/>
    <via-edge-types value="highway.motorway,highway.motorway_link,highway.trunk_link,highway.primary_link,highway.secondary_link,highway.tertiary_link"/>
    <min-distance value="600.0"/>
    <min-distance.fringe value="10.0"/>
    <remove-loops value="True"/>
    <validate value="True"/>
    <insertion-density value="3.0"/>
</configuration>
-->

<!-- generated on 2023-11-30 16:18:49 by Eclipse SUMO duarouter Version 1.18.0
<configuration xmlns:xsi="http://www.w3.org/2001/XMLSchema-instance" xsi:noNamespaceSchemaLocation="http://sumo.dlr.de/xsd/duarouterConfiguration.xsd">

    <input>
        <net-file value="/opt/homebrew/Cellar/sumo/1.18.0/share/sumo/tools/2023-11-30-16-18-30/osm.net.xml.gz"/>
        <route-files value="/opt/homebrew/Cellar/sumo/1.18.0/share/sumo/tools/2023-11-30-16-18-30/osm.bus.trips.xml"/>
    </input>

    <output>
        <output-file value="/opt/homebrew/Cellar/sumo/1.18.0/share/sumo/tools/2023-11-30-16-18-30/osm.bus.trips.xml.tmp"/>
        <alternatives-output value="NUL"/>
        <write-trips value="true"/>
    </output>

    <processing>
        <remove-loops value="true"/>
    </processing>

    <time>
        <begin value="0.0"/>
        <end value="3600.0"/>
    </time>

    <report>
        <no-warnings value="true"/>
        <ignore-errors value="true"/>
        <no-step-log value="true"/>
    </report>

</configuration>
-->

<routes xmlns:xsi="http://www.w3.org/2001/XMLSchema-instance" xsi:noNamespaceSchemaLocation="http://sumo.dlr.de/xsd/routes_file.xsd">
    <vType id="bus_bus" vClass="bus"/>
    <trip id="bus0" type="bus_bus" depart="0.00" departLane="best" from="-29980881#8" to="-1171881159"/>
    <trip id="bus1" type="bus_bus" depart="1.43" departLane="best" from="-29981389#0" to="-29981196#0"/>
    <trip id="bus2" type="bus_bus" depart="2.86" departLane="best" from="-29981214#1" to="29981130#24"/>
    <trip id="bus3" type="bus_bus" depart="4.29" departLane="best" from="-648762771#0" to="-223727785#3"/>
    <trip id="bus4" type="bus_bus" depart="5.72" departLane="best" from="-733057861#1" to="-122425173#2"/>
    <trip id="bus5" type="bus_bus" depart="7.16" departLane="best" from="-29981191#0" to="223010779"/>
    <trip id="bus6" type="bus_bus" depart="8.59" departLane="best" from="-1134764503#1" to="-29981089#6"/>
    <trip id="bus7" type="bus_bus" depart="10.02" departLane="best" from="29980915" to="-225022465#2"/>
    <trip id="bus8" type="bus_bus" depart="11.45" departLane="best" from="-29981195#3" to="29974106"/>
    <trip id="bus9" type="bus_bus" depart="12.88" departLane="best" from="30067640#0" to="1068342558#5"/>
    <trip id="bus10" type="bus_bus" depart="14.31" departLane="best" from="30010583#1" to="-29981201#5"/>
    <trip id="bus11" type="bus_bus" depart="15.74" departLane="best" from="40100737#0" to="-29980947#3"/>
    <trip id="bus12" type="bus_bus" depart="17.17" departLane="best" from="954026219#2" to="455829889#5"/>
    <trip id="bus13" type="bus_bus" depart="18.60" departLane="best" departSpeed="max" from="-234148680" to="225685354#0"/>
    <trip id="bus14" type="bus_bus" depart="20.03" departLane="best" from="-39223598#33" to="-29980909#2"/>
    <trip id="bus15" type="bus_bus" depart="21.47" departLane="best" from="-30020038#4" to="-29981304#3"/>
    <trip id="bus16" type="bus_bus" depart="22.90" departLane="best" from="207110409#0" to="975401579"/>
    <trip id="bus17" type="bus_bus" depart="24.33" departLane="best" from="-585404519#1" to="238103723#0"/>
    <trip id="bus18" type="bus_bus" depart="25.76" departLane="best" from="34612883" to="29980951#29"/>
    <trip id="bus19" type="bus_bus" depart="27.19" departLane="best" departSpeed="max" from="466057215#0" to="29394241#0"/>
    <trip id="bus20" type="bus_bus" depart="28.62" departLane="best" from="29981089#11" to="-142955641#0"/>
    <trip id="bus21" type="bus_bus" depart="30.05" departLane="best" from="-29981220#1" to="-30009272#1"/>
    <trip id="bus22" type="bus_bus" depart="31.48" departLane="best" departSpeed="max" from="-223586494#1" to="-29981225#2"/>
    <trip id="bus23" type="bus_bus" depart="32.91" departLane="best" from="-266423723#2" to="-29981400#7"/>
    <trip id="bus24" type="bus_bus" depart="34.34" departLane="best" from="-29980174#6" to="-651675647#1"/>
    <trip id="bus25" type="bus_bus" depart="35.78" departLane="best" from="-514017206#4" to="-29981139#1"/>
    <trip id="bus26" type="bus_bus" depart="37.21" departLane="best" departSpeed="max" from="-29981366" to="78179241#3"/>
    <trip id="bus27" type="bus_bus" depart="38.64" departLane="best" departSpeed="max" from="29980910#0" to="29980925#0"/>
    <trip id="bus28" type="bus_bus" depart="40.07" departLane="best" from="29981022#6" to="29981302#0"/>
    <trip id="bus29" type="bus_bus" depart="41.50" departLane="best" from="-29981003#19" to="-666169184"/>
    <trip id="bus30" type="bus_bus" depart="42.93" departLane="best" from="997409053#0" to="29981014#0"/>
    <trip id="bus31" type="bus_bus" depart="44.36" departLane="best" from="223456895#8" to="29981156#0"/>
    <trip id="bus32" type="bus_bus" depart="45.79" departLane="best" from="375367286#0" to="30020038#0"/>
    <trip id="bus33" type="bus_bus" depart="47.22" departLane="best" from="29981222#5" to="-126774856#0"/>
    <trip id="bus34" type="bus_bus" depart="48.65" departLane="best" from="-32119073#13" to="-29981371#0"/>
    <trip id="bus35" type="bus_bus" depart="50.09" departLane="best" from="29981160#2" to="827439972#0"/>
    <trip id="bus36" type="bus_bus" depart="51.52" departLane="best" from="517723469#2" to="-34614061#0"/>
    <trip id="bus37" type="bus_bus" depart="52.95" departLane="best" from="29980932#0" to="-78179241#4"/>
    <trip id="bus38" type="bus_bus" depart="54.38" departLane="best" from="-467808222" to="-113442610#0"/>
    <trip id="bus39" type="bus_bus" depart="55.81" departLane="best" from="-29981362#0" to="-29981275#2"/>
    <trip id="bus40" type="bus_bus" depart="57.24" departLane="best" from="223470794#1" to="-29981349#9"/>
    <trip id="bus41" type="bus_bus" depart="58.67" departLane="best" departSpeed="max" from="225527359" to="655098813#2"/>
    <trip id="bus42" type="bus_bus" depart="60.10" departLane="best" from="-655093176#0" to="-29981181#2"/>
    <trip id="bus43" type="bus_bus" depart="61.53" departLane="best" from="108425612#5" to="223105066#4"/>
    <trip id="bus44" type="bus_bus" depart="62.96" departLane="best" from="225763680#1" to="-147910933"/>
    <trip id="bus45" type="bus_bus" depart="64.40" departLane="best" from="29981415#0" to="1001559570#2"/>
    <trip id="bus46" type="bus_bus" depart="65.83" departLane="best" from="997899558" to="223572245#0"/>
    <trip id="bus47" type="bus_bus" depart="67.26" departLane="best" from="998333667" to="514218578#0"/>
    <trip id="bus48" type="bus_bus" depart="68.69" departLane="best" departSpeed="max" from="-1068424266#2" to="29981269#17"/>
    <trip id="bus49" type="bus_bus" depart="70.12" departLane="best" from="29981015#8" to="223600263#0"/>
    <trip id="bus50" type="bus_bus" depart="71.55" departLane="best" departSpeed="max" from="-29981366" to="-29981015#2"/>
    <trip id="bus51" type="bus_bus" depart="72.98" departLane="best" from="-29394251#1" to="1068342564#2"/>
    <trip id="bus52" type="bus_bus" depart="74.41" departLane="best" from="1006204340#0" to="919364003#0"/>
    <trip id="bus53" type="bus_bus" depart="75.84" departLane="best" from="516177027#2" to="-29981351#1"/>
    <trip id="bus54" type="bus_bus" depart="77.28" departLane="best" from="1225257611#0" to="-29981019#4"/>
    <trip id="bus55" type="bus_bus" depart="78.71" departLane="best" from="688104675#0" to="583357517#2"/>
    <trip id="bus56" type="bus_bus" depart="80.14" departLane="best" from="30067638#3" to="29981010#0"/>
    <trip id="bus57" type="bus_bus" depart="81.57" departLane="best" from="271100123#0" to="-29980936#7"/>
    <trip id="bus58" type="bus_bus" depart="83.00" departLane="best" from="29981304#2" to="223643147#0"/>
    <trip id="bus59" type="bus_bus" depart="84.43" departLane="best" from="-29981372#0" to="-1068680717"/>
    <trip id="bus60" type="bus_bus" depart="85.86" departLane="best" from="1004129376#0" to="-375368413"/>
    <trip id="bus61" type="bus_bus" depart="87.29" departLane="best" from="-109986799#4" to="1068573661#0"/>
    <trip id="bus62" type="bus_bus" depart="88.72" departLane="best" departSpeed="max" from="560689769#0" to="41748779#2"/>
    <trip id="bus63" type="bus_bus" depart="90.15" departLane="best" departSpeed="max" from="-32115767#1" to="-206683411#1"/>
    <trip id="bus64" type="bus_bus" depart="91.59" departLane="best" from="554844129" to="-83895928#0"/>
    <trip id="bus65" type="bus_bus" depart="93.02" departLane="best" from="-223802965#1" to="147910935"/>
    <trip id="bus66" type="bus_bus" depart="94.45" departLane="best" departSpeed="max" from="-223299688" to="29981415#1"/>
    <trip id="bus67" type="bus_bus" depart="95.88" departLane="best" from="-29981313#0" to="29632815#0"/>
    <trip id="bus68" type="bus_bus" depart="97.31" departLane="best" from="1096519393#1" to="-23035391#2"/>
    <trip id="bus69" type="bus_bus" depart="98.74" departLane="best" from="-29981362#1" to="585404519#1"/>
    <trip id="bus70" type="bus_bus" depart="100.17" departLane="best" from="-733997171#4" to="-29981145#2"/>
    <trip id="bus71" type="bus_bus" depart="101.60" departLane="best" departSpeed="max" from="221338716#0" to="29981304#4"/>
    <trip id="bus72" type="bus_bus" depart="103.03" departLane="best" from="-29981122#10" to="-341164408#3"/>
    <trip id="bus73" type="bus_bus" depart="104.46" departLane="best" from="997896364#0" to="29981041#0"/>
    <trip id="bus74" type="bus_bus" depart="105.90" departLane="best" from="-954026253" to="223177068#0"/>
    <trip id="bus75" type="bus_bus" depart="107.33" departLane="best" from="-29980877#8" to="-29981198#9"/>
    <trip id="bus76" type="bus_bus" depart="108.76" departLane="best" from="-383592501#7" to="299715510#0"/>
    <trip id="bus77" type="bus_bus" depart="110.19" departLane="best" from="-29981225#4" to="-29981184#2"/>
    <trip id="bus78" type="bus_bus" depart="111.62" departLane="best" from="223456898#2" to="29980989#1"/>
    <trip id="bus79" type="bus_bus" depart="113.05" departLane="best" from="-29981222#4" to="659335888#2"/>
    <trip id="bus80" type="bus_bus" depart="114.48" departLane="best" from="455829902#0" to="223138921#8"/>
    <trip id="bus81" type="bus_bus" depart="115.91" departLane="best" departSpeed="max" from="-29981254" to="29981096#3"/>
    <trip id="bus82" type="bus_bus" depart="117.34" departLane="best" from="-29981174#0" to="-29980172#4"/>
    <trip id="bus83" type="bus_bus" depart="118.77" departLane="best" departSpeed="max" from="766725076#0" to="29394156#0"/>
    <trip id="bus84" type="bus_bus" depart="120.21" departLane="best" from="1080776625#2" to="32114306#3"/>
    <trip id="bus85" type="bus_bus" depart="121.64" departLane="best" from="30020038#9" to="29981058#1"/>
    <trip id="bus86" type="bus_bus" depart="123.07" departLane="best" from="-261463329" to="103916811#0"/>
    <trip id="bus87" type="bus_bus" depart="124.50" departLane="best" from="753581049#12" to="1190824473"/>
    <trip id="bus88" type="bus_bus" depart="125.93" departLane="best" from="29981191#2" to="29981113#0"/>
    <trip id="bus89" type="bus_bus" depart="127.36" departLane="best" from="990485715#0" to="-225763680#1"/>
    <trip id="bus90" type="bus_bus" depart="128.79" departLane="best" departSpeed="max" from="-657956273#2" to="-466057215#0"/>
    <trip id="bus91" type="bus_bus" depart="130.22" departLane="best" departSpeed="max" from="466057215#0" to="-29981285#0"/>
    <trip id="bus92" type="bus_bus" depart="131.65" departLane="best" from="-29981086#3" to="-1098421859"/>
    <trip id="bus93" type="bus_bus" depart="133.08" departLane="best" from="-733057861#1" to="-29981401#4"/>
    <trip id="bus94" type="bus_bus" depart="134.52" departLane="best" departSpeed="max" from="-29981287" to="731963609#10"/>
    <trip id="bus95" type="bus_bus" depart="135.95" departLane="best" from="-975415092" to="515204969"/>
    <trip id="bus96" type="bus_bus" depart="137.38" departLane="best" from="-223138918#2" to="182403236#0"/>
    <trip id="bus97" type="bus_bus" depart="138.81" departLane="best" from="998323891#0" to="42944511#5"/>
    <trip id="bus98" type="bus_bus" depart="140.24" departLane="best" from="975401545#4" to="733997171#2"/>
    <trip id="bus99" type="bus_bus" depart="141.67" departLane="best" from="-404715752#1" to="29980981#5"/>
    <trip id="bus100" type="bus_bus" depart="143.10" departLane="best" from="-113442613#2" to="-29981153#1"/>
    <trip id="bus101" type="bus_bus" depart="144.53" departLane="best" departSpeed="max" from="-655255226#1" to="-209646300#2"/>
    <trip id="bus102" type="bus_bus" depart="145.96" departLane="best" from="-585404519#4" to="995872091#0"/>
    <trip id="bus103" type="bus_bus" depart="147.39" departLane="best" from="-29981362#2" to="32114306#0"/>
    <trip id="bus104" type="bus_bus" depart="148.83" departLane="best" from="-1033620735" to="1004463145#0"/>
    <trip id="bus105" type="bus_bus" depart="150.26" departLane="best" from="954026219#2-AddedOnRampEdge" to="997896365#0"/>
    <trip id="bus106" type="bus_bus" depart="151.69" departLane="best" from="223299683#0" to="29981268#11"/>
    <trip id="bus107" type="bus_bus" depart="153.12" departLane="best" from="-29980979#1" to="-30067640#1"/>
    <trip id="bus108" type="bus_bus" depart="154.55" departLane="best" from="975401544#0" to="29394275#0"/>
    <trip id="bus109" type="bus_bus" depart="155.98" departLane="best" departSpeed="max" from="222848457#0" to="29981378#9"/>
    <trip id="bus110" type="bus_bus" depart="157.41" departLane="best" from="-220519291#1" to="29635010"/>
    <trip id="bus111" type="bus_bus" depart="158.84" departLane="best" from="1225514635#0" to="489023479#1"/>
    <trip id="bus112" type="bus_bus" depart="160.27" departLane="best" from="-29980984#2" to="954026241"/>
    <trip id="bus113" type="bus_bus" depart="161.71" departLane="best" from="-223600258#1" to="-29981041#0"/>
    <trip id="bus114" type="bus_bus" depart="163.14" departLane="best" from="-244727543#1" to="29981122#11"/>
    <trip id="bus115" type="bus_bus" depart="164.57" departLane="best" from="29981246#4" to="29394165"/>
    <trip id="bus116" type="bus_bus" depart="166.00" departLane="best" from="618320311" to="29981269#11"/>
    <trip id="bus117" type="bus_bus" depart="167.43" departLane="best" departSpeed="max" from="243621307" to="-29980953"/>
    <trip id="bus118" type="bus_bus" depart="168.86" departLane="best" departSpeed="max" from="-724168564" to="295353295"/>
    <trip id="bus119" type="bus_bus" depart="170.29" departLane="best" from="-172675458" to="764250230#0"/>
    <trip id="bus120" type="bus_bus" depart="171.72" departLane="best" from="-29981135#6" to="29981263#5"/>
    <trip id="bus121" type="bus_bus" depart="173.15" departLane="best" departSpeed="max" from="-29981258" to="-79817287"/>
    <trip id="bus122" type="bus_bus" depart="174.58" departLane="best" from="29980984#0" to="-320452495#3"/>
    <trip id="bus123" type="bus_bus" depart="176.02" departLane="best" from="-32119073#3" to="29981388#0"/>
    <trip id="bus124" type="bus_bus" depart="177.45" departLane="best" from="223456899#6" to="1133834857#0"/>
    <trip id="bus125" type="bus_bus" depart="178.88" departLane="best" from="997959492" to="997899558"/>
    <trip id="bus126" type="bus_bus" depart="180.31" departLane="best" from="-223462575#5" to="29981148#4"/>
    <trip id="bus127" type="bus_bus" depart="181.74" departLane="best" from="-29981362#2" to="760826310#2"/>
    <trip id="bus129" type="bus_bus" depart="184.60" departLane="best" from="-495737754" to="-29980957#13"/>
    <trip id="bus130" type="bus_bus" depart="186.03" departLane="best" from="-34614069#1" to="29981222#0"/>
    <trip id="bus131" type="bus_bus" depart="187.46" departLane="best" from="29331564" to="996548637#0"/>
    <trip id="bus132" type="bus_bus" depart="188.89" departLane="best" from="29980924#2" to="29981163#10"/>
    <trip id="bus133" type="bus_bus" depart="190.33" departLane="best" from="32114930#0" to="-30622024#4"/>
    <trip id="bus134" type="bus_bus" depart="191.76" departLane="best" from="29980958" to="82164708#12"/>
    <trip id="bus135" type="bus_bus" depart="193.19" departLane="best" from="-29980918#22" to="29202680#0"/>
    <trip id="bus136" type="bus_bus" depart="194.62" departLane="best" from="-29394158#1" to="247827729#0"/>
    <trip id="bus137" type="bus_bus" depart="196.05" departLane="best" departSpeed="max" from="-29981384#2" to="29980913#6"/>
    <trip id="bus138" type="bus_bus" depart="197.48" departLane="best" from="-29981145#1" to="-29981105#2"/>
    <trip id="bus139" type="bus_bus" depart="198.91" departLane="best" from="29974102" to="-29981358#1"/>
    <trip id="bus140" type="bus_bus" depart="200.34" departLane="best" departSpeed="max" from="115479070#0" to="659335888#2"/>
    <trip id="bus141" type="bus_bus" depart="201.77" departLane="best" from="385114873" to="-225398819"/>
    <trip id="bus142" type="bus_bus" depart="203.20" departLane="best" from="753581049#12" to="-29981395#4"/>
    <trip id="bus143" type="bus_bus" depart="204.64" departLane="best" from="-1033622464#7" to="30009272#21"/>
    <trip id="bus144" type="bus_bus" depart="206.07" departLane="best" from="-29980877#12" to="-29981343#5"/>
    <trip id="bus145" type="bus_bus" depart="207.50" departLane="best" from="29981230#0" to="-237523990#3"/>
    <trip id="bus146" type="bus_bus" depart="208.93" departLane="best" departSpeed="max" from="-808841696#1" to="-1068418711"/>
    <trip id="bus147" type="bus_bus" depart="210.36" departLane="best" from="1146037288#0" to="651764605#9"/>
    <trip id="bus148" type="bus_bus" depart="211.79" departLane="best" from="655241413#0" to="225022469#1"/>
    <trip id="bus149" type="bus_bus" depart="213.22" departLane="best" from="-34614075#3" to="29448473#1"/>
    <trip id="bus150" type="bus_bus" depart="214.65" departLane="best" from="-29980957#5" to="-29448479#1"/>
    <trip id="bus151" type="bus_bus" depart="216.08" departLane="best" from="32117924#5" to="657956233"/>
    <trip id="bus152" type="bus_bus" depart="217.51" departLane="best" from="30003434#0" to="514218578#0"/>
    <trip id="bus153" type="bus_bus" depart="218.95" departLane="best" from="653795246#5" to="-29981141#6"/>
    <trip id="bus154" type="bus_bus" depart="220.38" departLane="best" departSpeed="max" from="-29981287" to="-237523989#6"/>
    <trip id="bus155" type="bus_bus" depart="221.81" departLane="best" from="29981378#1" to="651770668"/>
    <trip id="bus156" type="bus_bus" depart="223.24" departLane="best" from="-658245253" to="-29980957#8"/>
    <trip id="bus157" type="bus_bus" depart="224.67" departLane="best" departSpeed="max" from="468005321#0" to="-975415089"/>
    <trip id="bus158" type="bus_bus" depart="226.10" departLane="best" from="300698759" to="651675642#1"/>
    <trip id="bus159" type="bus_bus" depart="227.53" departLane="best" departSpeed="max" from="-1117548717#1" to="29981333#0"/>
    <trip id="bus160" type="bus_bus" depart="228.96" departLane="best" from="-367433438#5" to="750763149#0"/>
    <trip id="bus161" type="bus_bus" depart="230.39" departLane="best" from="30009272#8" to="-542913550#2"/>
    <trip id="bus162" type="bus_bus" depart="231.83" departLane="best" from="300698759" to="-29981370#2"/>
    <trip id="bus163" type="bus_bus" depart="233.26" departLane="best" from="29981395#0" to="-261305169#3"/>
    <trip id="bus164" type="bus_bus" depart="234.69" departLane="best" from="495921378#0" to="495737754"/>
    <trip id="bus165" type="bus_bus" depart="236.12" departLane="best" from="-29981198#9" to="364886297#0"/>
    <trip id="bus166" type="bus_bus" depart="237.55" departLane="best" from="-103916811#2" to="-32117926#5"/>
    <trip id="bus167" type="bus_bus" depart="238.98" departLane="best" from="30000956#9" to="-29981208#17"/>
    <trip id="bus168" type="bus_bus" depart="240.41" departLane="best" departSpeed="max" from="-1117493507#3" to="-29981075#12"/>
    <trip id="bus169" type="bus_bus" depart="241.84" departLane="best" departSpeed="max" from="-35407770#1" to="549173651#0"/>
    <trip id="bus170" type="bus_bus" depart="243.27" departLane="best" from="975401532" to="-29981402#1"/>
    <trip id="bus171" type="bus_bus" depart="244.70" departLane="best" from="-29980886#4" to="-827439974#8"/>
    <trip id="bus172" type="bus_bus" depart="246.14" departLane="best" from="618320304#0" to="223600260#0-AddedOnRampEdge"/>
    <trip id="bus173" type="bus_bus" depart="247.57" departLane="best" from="-82164708#1" to="29202680#0"/>
    <trip id="bus174" type="bus_bus" depart="249.00" departLane="best" from="975401551#0" to="-29981019#4"/>
    <trip id="bus175" type="bus_bus" depart="250.43" departLane="best" from="954026258" to="-29981363#4"/>
    <trip id="bus176" type="bus_bus" depart="251.86" departLane="best" from="-29394219#1" to="1068342564#0"/>
    <trip id="bus177" type="bus_bus" depart="253.29" departLane="best" from="29981189#0" to="34614057#0"/>
    <trip id="bus178" type="bus_bus" depart="254.72" departLane="best" from="261675854#7" to="223105074#3"/>
    <trip id="bus179" type="bus_bus" depart="256.15" departLane="best" from="-651675647#1" to="29394231#0"/>
    <trip id="bus180" type="bus_bus" depart="257.58" departLane="best" from="-29981307#6" to="29981242#1"/>
    <trip id="bus181" type="bus_bus" depart="259.01" departLane="best" from="-1033620732#1" to="733057868#0"/>
    <trip id="bus182" type="bus_bus" depart="260.45" departLane="best" from="-220519286#1" to="29981268#21"/>
    <trip id="bus183" type="bus_bus" depart="261.88" departLane="best" from="29980964#0" to="-40945525#5"/>
    <trip id="bus184" type="bus_bus" depart="263.31" departLane="best" from="-32119069#1" to="478036790#0"/>
    <trip id="bus185" type="bus_bus" depart="264.74" departLane="best" from="-29981148#3" to="-320452498#2"/>
    <trip id="bus186" type="bus_bus" depart="266.17" departLane="best" departSpeed="max" from="-32117932#1" to="731963609#15"/>
    <trip id="bus187" type="bus_bus" depart="267.60" departLane="best" departSpeed="max" from="-657956273#2" to="30067637#4"/>
    <trip id="bus188" type="bus_bus" depart="269.03" departLane="best" departSpeed="max" from="-29980897#7" to="997896365#0"/>
    <trip id="bus189" type="bus_bus" depart="270.46" departLane="best" from="82164709#1" to="29981131#0"/>
    <trip id="bus190" type="bus_bus" depart="271.89" departLane="best" from="655093174#1" to="29980944#0"/>
    <trip id="bus191" type="bus_bus" depart="273.32" departLane="best" departSpeed="max" from="-30149367#2" to="225707596#0"/>
    <trip id="bus192" type="bus_bus" depart="274.76" departLane="best" from="-1001559571#1" to="-30008228#7"/>
    <trip id="bus193" type="bus_bus" depart="276.19" departLane="best" from="-82164708#6" to="29420421#0"/>
    <trip id="bus194" type="bus_bus" depart="277.62" departLane="best" from="29980928#4" to="1183718459#0"/>
    <trip id="bus195" type="bus_bus" depart="279.05" departLane="best" from="-975415077" to="-29981153#1"/>
    <trip id="bus196" type="bus_bus" depart="280.48" departLane="best" from="1080776626#3" to="657956277#0"/>
    <trip id="bus197" type="bus_bus" depart="281.91" departLane="best" from="30003434#0" to="-29980996#0"/>
    <trip id="bus198" type="bus_bus" depart="283.34" departLane="best" from="-223747998#2" to="223138925"/>
    <trip id="bus199" type="bus_bus" depart="284.77" departLane="best" from="299715505#0" to="-448203093#2"/>
    <trip id="bus200" type="bus_bus" depart="286.20" departLane="best" from="32115476" to="29981387#0"/>
    <trip id="bus201" type="bus_bus" depart="287.63" departLane="best" from="29980989#0" to="-29981198#7"/>
    <trip id="bus202" type="bus_bus" depart="289.07" departLane="best" from="-29981112#5" to="1155385176"/>
    <trip id="bus203" type="bus_bus" depart="290.50" departLane="best" from="-29981269#16" to="1225257632#0"/>
    <trip id="bus204" type="bus_bus" depart="291.93" departLane="best" departSpeed="max" from="40945525#0" to="-223177067#6"/>
    <trip id="bus205" type="bus_bus" depart="293.36" departLane="best" departSpeed="max" from="-711504661" to="-29980984#1"/>
    <trip id="bus206" type="bus_bus" depart="294.79" departLane="best" from="29981096#10" to="29981197#1"/>
    <trip id="bus207" type="bus_bus" depart="296.22" departLane="best" departSpeed="max" from="1192123024#0" to="29981268#14"/>
    <trip id="bus208" type="bus_bus" depart="297.65" departLane="best" from="-29980935#1" to="-103916811#11"/>
    <trip id="bus209" type="bus_bus" depart="299.08" departLane="best" from="-29981267#10" to="30009272#11"/>
    <trip id="bus210" type="bus_bus" depart="300.51" departLane="best" from="29389638#6" to="1033622459#0"/>
    <trip id="bus211" type="bus_bus" depart="301.95" departLane="best" from="-29981035#3" to="954026223#4"/>
    <trip id="bus212" type="bus_bus" depart="303.38" departLane="best" from="131385247#0" to="-173502887#2"/>
    <trip id="bus213" type="bus_bus" depart="304.81" departLane="best" from="-29981286#3" to="488896567#0"/>
    <trip id="bus214" type="bus_bus" depart="306.24" departLane="best" from="-1033622464#6" to="328144871#0"/>
    <trip id="bus215" type="bus_bus" depart="307.67" departLane="best" from="-29980974#6" to="996549293"/>
    <trip id="bus216" type="bus_bus" depart="309.10" departLane="best" from="621980074#8" to="29980935#0"/>
    <trip id="bus217" type="bus_bus" depart="310.53" departLane="best" from="29981146#0" to="221961148#0"/>
    <trip id="bus218" type="bus_bus" depart="311.96" departLane="best" from="34614054#0" to="225707596#0"/>
    <trip id="bus219" type="bus_bus" depart="313.39" departLane="best" from="651792585#6" to="29981365#2"/>
    <trip id="bus220" type="bus_bus" depart="314.82" departLane="best" departSpeed="max" from="1096352520" to="-29981325#2"/>
    <trip id="bus221" type="bus_bus" depart="316.26" departLane="best" departSpeed="max" from="-29981281#6" to="29981007#0"/>
    <trip id="bus222" type="bus_bus" depart="317.69" departLane="best" from="-29981313#0" to="223456898#3"/>
    <trip id="bus223" type="bus_bus" depart="319.12" departLane="best" departSpeed="max" from="29448479#0" to="29981389#7"/>
    <trip id="bus224" type="bus_bus" depart="320.55" departLane="best" from="-223586490#2" to="-30008228#0"/>
    <trip id="bus225" type="bus_bus" depart="321.98" departLane="best" from="-29981382" to="-364967601"/>
    <trip id="bus226" type="bus_bus" depart="323.41" departLane="best" departSpeed="max" from="222848428#0" to="-29980888#1"/>
    <trip id="bus227" type="bus_bus" depart="324.84" departLane="best" from="-29981231#1" to="29981192"/>
    <trip id="bus228" type="bus_bus" depart="326.27" departLane="best" from="-29981091#2" to="-222848462"/>
    <trip id="bus229" type="bus_bus" depart="327.70" departLane="best" departSpeed="max" from="-658245263#1" to="223748000#0"/>
    <trip id="bus230" type="bus_bus" depart="329.13" departLane="best" from="-717959601" to="-29981119#2"/>
    <trip id="bus231" type="bus_bus" depart="330.57" departLane="best" from="726511410#4" to="659335887#0"/>
    <trip id="bus232" type="bus_bus" depart="332.00" departLane="best" departSpeed="max" from="225524838" to="-29981196#0"/>
    <trip id="bus233" type="bus_bus" depart="333.43" departLane="best" from="448187739#0" to="-30003434#8"/>
    <trip id="bus234" type="bus_bus" depart="334.86" departLane="best" from="-60592757#7" to="-103916812"/>
    <trip id="bus235" type="bus_bus" depart="336.29" departLane="best" from="-455829889#4" to="29981391#2"/>
    <trip id="bus237" type="bus_bus" depart="339.15" departLane="best" departSpeed="max" from="-724168564" to="29981378#4"/>
    <trip id="bus238" type="bus_bus" depart="340.58" departLane="best" from="-223105065#0" to="29980908#18"/>
    <trip id="bus239" type="bus_bus" depart="342.01" departLane="best" from="29981195#4" to="29981181#0"/>
    <trip id="bus240" type="bus_bus" depart="343.44" departLane="best" departSpeed="max" from="-853761993" to="-1201852712#2"/>
    <trip id="bus241" type="bus_bus" depart="344.88" departLane="best" from="-375368409#1" to="-29981143#3"/>
    <trip id="bus242" type="bus_bus" depart="346.31" departLane="best" from="-657956277#1" to="29980979#3"/>
    <trip id="bus243" type="bus_bus" depart="347.74" departLane="best" from="-222848431#6" to="1068483513"/>
    <trip id="bus244" type="bus_bus" depart="349.17" departLane="best" from="-29394262#2" to="-1183718482#2"/>
    <trip id="bus245" type="bus_bus" depart="350.60" departLane="best" departSpeed="max" from="-653798789" to="-271101831#2"/>
    <trip id="bus246" type="bus_bus" depart="352.03" departLane="best" from="-1134764505#1" to="29981018#0"/>
    <trip id="bus247" type="bus_bus" depart="353.46" departLane="best" from="29980919#4" to="1139719915#0"/>
    <trip id="bus248" type="bus_bus" depart="354.89" departLane="best" from="-192640537#16" to="-660242136#3"/>
    <trip id="bus249" type="bus_bus" depart="356.32" departLane="best" from="-29981164#7" to="38584626#0"/>
    <trip id="bus250" type="bus_bus" depart="357.75" departLane="best" from="29981300#7" to="-660242136#3"/>