<?xml version="1.0" encoding="UTF-8"?>

<!-- generated on 2023-10-09 14:51:44.129458 by osmWebWizard.py UNKNOWN
<configuration>
    <net-file value="/opt/homebrew/Cellar/sumo/1.18.0/share/sumo/tools/2023-10-09-14-51-36/osm.net.xml.gz"/>
    <output-trip-file value="/opt/homebrew/Cellar/sumo/1.18.0/share/sumo/tools/2023-10-09-14-51-36/osm.passenger.trips.xml"/>
    <route-file value="/opt/homebrew/Cellar/sumo/1.18.0/share/sumo/tools/2023-10-09-14-51-36/osm.passenger.rou.xml"/>
    <prefix value="veh"/>
    <trip-attributes value="departLane=&quot;best&quot;"/>
    <fringe-start-attributes value="departSpeed=&quot;max&quot;"/>
    <vehicle-class value="passenger"/>
    <lanes value="True"/>
    <fringe-factor value="5"/>
    <allow-fringe.min-length value="1000.0"/>
    <via-edge-types value="highway.motorway,highway.motorway_link,highway.trunk_link,highway.primary_link,highway.secondary_link,highway.tertiary_link"/>
    <min-distance value="300.0"/>
    <min-distance.fringe value="10.0"/>
    <remove-loops value="True"/>
    <validate value="True"/>
    <insertion-density value="12.0"/>
</configuration>
-->

<!-- generated on 2023-10-09 14:51:44 by Eclipse SUMO duarouter Version 1.18.0
<configuration xmlns:xsi="http://www.w3.org/2001/XMLSchema-instance" xsi:noNamespaceSchemaLocation="http://sumo.dlr.de/xsd/duarouterConfiguration.xsd">

    <input>
        <net-file value="/opt/homebrew/Cellar/sumo/1.18.0/share/sumo/tools/2023-10-09-14-51-36/osm.net.xml.gz"/>
        <route-files value="/opt/homebrew/Cellar/sumo/1.18.0/share/sumo/tools/2023-10-09-14-51-36/osm.passenger.trips.xml"/>
    </input>

    <output>
        <output-file value="/opt/homebrew/Cellar/sumo/1.18.0/share/sumo/tools/2023-10-09-14-51-36/osm.passenger.trips.xml.tmp"/>
        <alternatives-output value="NUL"/>
        <write-trips value="true"/>
    </output>

    <processing>
        <remove-loops value="true"/>
    </processing>

    <time>
        <begin value="0.0"/>
        <end value="3600.0"/>
    </time>

    <report>
        <no-warnings value="true"/>
        <ignore-errors value="true"/>
        <no-step-log value="true"/>
    </report>

</configuration>
-->

<routes xmlns:xsi="http://www.w3.org/2001/XMLSchema-instance" xsi:noNamespaceSchemaLocation="http://sumo.dlr.de/xsd/routes_file.xsd">
    <vType id="veh_passenger" vClass="passenger"/>
    <trip id="veh0" type="veh_passenger" depart="0.00" departLane="best" from="38584626#1" to="30067029#1"/>
    <trip id="veh1" type="veh_passenger" depart="6.44" departLane="best" from="29981359#1" to="29981122#11"/>
    <trip id="veh2" type="veh_passenger" depart="12.87" departLane="best" from="-744259179#2" to="-29980168#0"/>
    <trip id="veh3" type="veh_passenger" depart="19.31" departLane="best" from="1097021899#1" to="1190889943#2"/>
    <trip id="veh4" type="veh_passenger" depart="25.74" departLane="best" departSpeed="max" from="-110043959#2" to="-29981307#0"/>
    <trip id="veh5" type="veh_passenger" depart="32.18" departLane="best" departSpeed="max" from="-29981237#1" to="29980944#2"/>
    <trip id="veh8" type="veh_passenger" depart="51.49" departLane="best" from="975415075" to="1033722536"/>
    <trip id="veh9" type="veh_passenger" depart="57.92" departLane="best" from="-295143807#3" to="-29980168#3"/>
    <trip id="veh10" type="veh_passenger" depart="64.36" departLane="best" from="-726511410#1" to="29980968#0"/>
    <trip id="veh11" type="veh_passenger" depart="70.80" departLane="best" departSpeed="max" from="40945525#0" to="-29981306#1"/>
    <trip id="veh12" type="veh_passenger" depart="77.23" departLane="best" from="29394205#0" to="990093511#0"/>
    <trip id="veh13" type="veh_passenger" depart="83.67" departLane="best" from="-1004129377#7" to="-29980168#4"/>
    <trip id="veh14" type="veh_passenger" depart="90.10" departLane="best" departSpeed="max" from="29981306#0" to="-203983268#1"/>
    <trip id="veh15" type="veh_passenger" depart="96.54" departLane="best" departSpeed="max" from="-29981279#2" to="-731962213"/>
    <trip id="veh16" type="veh_passenger" depart="102.98" departLane="best" departSpeed="max" from="-233560941#2" to="-385114873"/>
    <trip id="veh17" type="veh_passenger" depart="109.41" departLane="best" from="-29980157" to="-726511410#1"/>
    <trip id="veh19" type="veh_passenger" depart="122.28" departLane="best" from="-990068611#1" to="-29981340#1"/>
    <trip id="veh21" type="veh_passenger" depart="135.16" departLane="best" from="29981099#2" to="29980968#4"/>
    <trip id="veh22" type="veh_passenger" depart="141.59" departLane="best" departSpeed="max" from="-29981072#1" to="29981279#2"/>
    <trip id="veh23" type="veh_passenger" depart="148.03" departLane="best" departSpeed="max" from="-29980990#1" to="110043959#2"/>
    <trip id="veh24" type="veh_passenger" depart="154.46" departLane="best" from="223138926#0" to="29981078#2"/>
    <trip id="veh25" type="veh_passenger" depart="160.90" departLane="best" from="299438852#1" to="-29981122#15"/>
    <trip id="veh26" type="veh_passenger" depart="167.34" departLane="best" from="-726511409#1" to="30189666#2"/>
    <trip id="veh27" type="veh_passenger" depart="173.77" departLane="best" from="29981306#1" to="1190889943#3"/>
    <trip id="veh28" type="veh_passenger" depart="180.21" departLane="best" from="725073808" to="-726509434#8"/>
    <trip id="veh29" type="veh_passenger" depart="186.64" departLane="best" from="29981201#2" to="750776353"/>
    <trip id="veh30" type="veh_passenger" depart="193.08" departLane="best" from="731962224#2" to="-916411017"/>
    <trip id="veh31" type="veh_passenger" depart="199.52" departLane="best" from="29981099#8" to="117178128#1"/>
    <trip id="veh33" type="veh_passenger" depart="212.39" departLane="best" departSpeed="max" from="-35742163" to="-38584626#6"/>
    <trip id="veh34" type="veh_passenger" depart="218.82" departLane="best" from="299438852#3" to="-726509434#1"/>
    <trip id="veh35" type="veh_passenger" depart="225.26" departLane="best" from="29980874#2" to="731962221#0"/>
    <trip id="veh36" type="veh_passenger" depart="231.70" departLane="best" from="106384423#1" to="-30000952#0"/>
    <trip id="veh37" type="veh_passenger" depart="238.13" departLane="best" from="997391288#1" to="29394200#0"/>
    <trip id="veh38" type="veh_passenger" depart="244.57" departLane="best" from="38584626#10" to="203857384#1"/>
    <trip id="veh39" type="veh_passenger" depart="251.00" departLane="best" from="203983268#0" to="110043959#2"/>
    <trip id="veh40" type="veh_passenger" depart="257.44" departLane="best" from="997391288#0" to="295143807#4"/>
    <trip id="veh41" type="veh_passenger" depart="263.88" departLane="best" from="990093510" to="726509433#3"/>
    <trip id="veh42" type="veh_passenger" depart="270.31" departLane="best" departSpeed="max" from="-1068534420#1" to="29981237#1"/>
    <trip id="veh43" type="veh_passenger" depart="276.75" departLane="best" from="29981122#9" to="299438852#2"/>
    <trip id="veh44" type="veh_passenger" depart="283.18" departLane="best" departSpeed="max" from="-35742163" to="29981078#2"/>
    <trip id="veh45" type="veh_passenger" depart="289.62" departLane="best" from="29980168#3" to="223099573#2"/>
    <trip id="veh46" type="veh_passenger" depart="296.06" departLane="best" from="-1004129377#0" to="89603720#1"/>
    <trip id="veh47" type="veh_passenger" depart="302.49" departLane="best" from="731962224#0" to="-726509434#1"/>
    <trip id="veh50" type="veh_passenger" depart="321.80" departLane="best" departSpeed="max" from="-40945525#2" to="29981078#2"/>
    <trip id="veh52" type="veh_passenger" depart="334.67" departLane="best" departSpeed="max" from="30189700#0" to="299438852#3"/>
    <trip id="veh53" type="veh_passenger" depart="341.11" departLane="best" from="-30276468#2" to="295143807#5"/>
    <trip id="veh54" type="veh_passenger" depart="347.54" departLane="best" from="-1004129377#0" to="-990068611#1"/>
    <trip id="veh55" type="veh_passenger" depart="353.98" departLane="best" from="1068534421#1" to="816420282#2"/>
    <trip id="veh56" type="veh_passenger" depart="360.42" departLane="best" from="731962224#2" to="40945525#2"/>
    <trip id="veh57" type="veh_passenger" depart="366.85" departLane="best" departSpeed="max" from="-621980074#1" to="223727787#7"/>
    <trip id="veh58" type="veh_passenger" depart="373.29" departLane="best" departSpeed="max" from="-261463325" to="258375155#0"/>
    <trip id="veh59" type="veh_passenger" depart="379.72" departLane="best" from="1068342552#1" to="29981398#1"/>
    <trip id="veh60" type="veh_passenger" depart="386.16" departLane="best" departSpeed="max" from="30189700#0" to="-29980975#0"/>
    <trip id="veh61" type="veh_passenger" depart="392.60" departLane="best" from="223600260#0" to="-29980168#1"/>
    <trip id="veh62" type="veh_passenger" depart="399.03" departLane="best" departSpeed="max" from="-35742163" to="726511409#0"/>
    <trip id="veh63" type="veh_passenger" depart="405.47" departLane="best" from="1097021899#2" to="-29981359#3"/>
    <trip id="veh64" type="veh_passenger" depart="411.90" departLane="best" from="29394205#1" to="-29981306#1"/>
    <trip id="veh65" type="veh_passenger" depart="418.34" departLane="best" from="-29981122#4" to="-916411017"/>
    <trip id="veh66" type="veh_passenger" depart="424.78" departLane="best" from="997391288#0" to="29981078#4"/>
    <trip id="veh67" type="veh_passenger" depart="431.21" departLane="best" from="117178128#1" to="29394205#1"/>
    <trip id="veh68" type="veh_passenger" depart="437.65" departLane="best" from="-29980874#2" to="30067029#1"/>
    <trip id="veh69" type="veh_passenger" depart="444.08" departLane="best" from="-726511411#1" to="29980944#0"/>
    <trip id="veh70" type="veh_passenger" depart="450.52" departLane="best" from="29981306#1" to="-30000952#1"/>
    <trip id="veh71" type="veh_passenger" depart="456.96" departLane="best" from="-223600264#2" to="29981072#1"/>
    <trip id="veh72" type="veh_passenger" depart="463.39" departLane="best" from="29981306#1" to="731962224#0"/>
    <trip id="veh73" type="veh_passenger" depart="469.83" departLane="best" from="731962212#0" to="-295143807#5"/>
    <trip id="veh74" type="veh_passenger" depart="476.27" departLane="best" from="29981307#2" to="29981099#7"/>
    <trip id="veh75" type="veh_passenger" depart="482.70" departLane="best" departSpeed="max" from="-29981201#5" to="-29980975#5"/>
    <trip id="veh77" type="veh_passenger" depart="495.57" departLane="best" departSpeed="max" from="40945525#0" to="-29981306#1"/>
    <trip id="veh78" type="veh_passenger" depart="502.01" departLane="best" from="-295143807#6" to="223099573#0"/>
    <trip id="veh79" type="veh_passenger" depart="508.45" departLane="best" from="1097021899#2" to="233560941#2"/>
    <trip id="veh80" type="veh_passenger" depart="514.88" departLane="best" from="29981356#2" to="29981110#0"/>
    <trip id="veh81" type="veh_passenger" depart="521.32" departLane="best" departSpeed="max" from="996549294#0" to="-29980168#4"/>
    <trip id="veh82" type="veh_passenger" depart="527.75" departLane="best" from="29394203#3" to="29981383#6"/>
    <trip id="veh83" type="veh_passenger" depart="534.19" departLane="best" from="1033722535#1" to="-38584626#7"/>
    <trip id="veh84" type="veh_passenger" depart="540.63" departLane="best" from="-29981122#11" to="223600260#3"/>
    <trip id="veh85" type="veh_passenger" depart="547.06" departLane="best" from="1097021899#1" to="-726511410#4"/>
    <trip id="veh86" type="veh_passenger" depart="553.50" departLane="best" from="30000952#0" to="750803290#1"/>
    <trip id="veh87" type="veh_passenger" depart="559.93" departLane="best" from="295143807#5" to="223462581#1"/>
    <trip id="veh88" type="veh_passenger" depart="566.37" departLane="best" from="726511410#4" to="-29981122#4"/>
    <trip id="veh89" type="veh_passenger" depart="572.81" departLane="best" from="223600262#1" to="-29981359#6"/>
    <trip id="veh90" type="veh_passenger" depart="579.24" departLane="best" from="106384423#1" to="233560941#0"/>
    <trip id="veh91" type="veh_passenger" depart="585.68" departLane="best" from="223099573#2" to="996549291#1"/>
    <trip id="veh93" type="veh_passenger" depart="598.55" departLane="best" from="975415075" to="997391288#0"/>
    <trip id="veh94" type="veh_passenger" depart="604.99" departLane="best" from="299438852#1" to="29981237#1"/>
    <trip id="veh96" type="veh_passenger" depart="617.86" departLane="best" from="975415075" to="29980931#2"/>
    <trip id="veh97" type="veh_passenger" depart="624.29" departLane="best" from="-730852870" to="29981359#0"/>
    <trip id="veh98" type="veh_passenger" depart="630.73" departLane="best" departSpeed="max" from="-203857384#1" to="29980934#0"/>
    <trip id="veh99" type="veh_passenger" depart="637.17" departLane="best" from="29980975#5" to="-975415077"/>
    <trip id="veh100" type="veh_passenger" depart="643.60" departLane="best" departSpeed="max" from="-233560941#2" to="-29981306#0"/>
    <trip id="veh101" type="veh_passenger" depart="650.04" departLane="best" departSpeed="max" from="29980910#0" to="29981122#10"/>
    <trip id="veh102" type="veh_passenger" depart="656.47" departLane="best" from="29981306#5" to="-29980943#0"/>
    <trip id="veh103" type="veh_passenger" depart="662.91" departLane="best" from="-744259179#1" to="38584626#6"/>
    <trip id="veh104" type="veh_passenger" depart="669.35" departLane="best" departSpeed="max" from="29980910#0" to="-29980975#6"/>
    <trip id="veh105" type="veh_passenger" depart="675.78" departLane="best" from="1097021899#0" to="29980934#0"/>
    <trip id="veh107" type="veh_passenger" depart="688.65" departLane="best" from="-29981122#7" to="29981215#2"/>
    <trip id="veh108" type="veh_passenger" depart="695.09" departLane="best" from="29981307#4" to="117178128#1"/>
    <trip id="veh109" type="veh_passenger" depart="701.53" departLane="best" from="-29981122#15" to="816420282#2"/>
    <trip id="veh110" type="veh_passenger" depart="707.96" departLane="best" from="-726509434#0" to="-29981359#6"/>
    <trip id="veh111" type="veh_passenger" depart="714.40" departLane="best" from="-223727787#3" to="-29981359#4"/>
    <trip id="veh113" type="veh_passenger" depart="727.27" departLane="best" departSpeed="max" from="-744259179#0" to="726511410#4"/>
    <trip id="veh114" type="veh_passenger" depart="733.71" departLane="best" from="-990068611#1" to="29981122#12"/>
    <trip id="veh117" type="veh_passenger" depart="753.01" departLane="best" from="-29981099#7" to="1033751593"/>
    <trip id="veh118" type="veh_passenger" depart="759.45" departLane="best" from="53879362" to="816420282#1"/>
    <trip id="veh119" type="veh_passenger" depart="765.89" departLane="best" from="-29981122#11" to="852995460"/>
    <trip id="veh120" type="veh_passenger" depart="772.32" departLane="best" departSpeed="max" from="-29980931#2" to="-29980916#2"/>
    <trip id="veh121" type="veh_passenger" depart="778.76" departLane="best" from="-385114873" to="29980968#1"/>
    <trip id="veh123" type="veh_passenger" depart="791.63" departLane="best" from="223600264#2" to="731962224#0"/>
    <trip id="veh124" type="veh_passenger" depart="798.07" departLane="best" from="-726511410#0" to="-29980168#1"/>
    <trip id="veh125" type="veh_passenger" depart="804.50" departLane="best" from="1097021899#2" to="-726511410#1"/>
    <trip id="veh126" type="veh_passenger" depart="810.94" departLane="best" from="1033751593" to="30067029#1"/>
    <trip id="veh128" type="veh_passenger" depart="823.81" departLane="best" from="29981383#3" to="-29980168#3"/>
    <trip id="veh129" type="veh_passenger" depart="830.25" departLane="best" from="1107053133#0" to="-1068534421#0"/>
    <trip id="veh130" type="veh_passenger" depart="836.68" departLane="best" from="750803290#1" to="29980162#1"/>
    <trip id="veh131" type="veh_passenger" depart="843.12" departLane="best" from="726509434#4" to="29980931#2"/>
    <trip id="veh132" type="veh_passenger" depart="849.55" departLane="best" departSpeed="max" from="-29980968#4" to="29980970#2"/>
    <trip id="veh133" type="veh_passenger" depart="855.99" departLane="best" departSpeed="max" from="-621980074#1" to="731962223#0"/>
    <trip id="veh134" type="veh_passenger" depart="862.43" departLane="best" from="38584626#3" to="726509433#3"/>
    <trip id="veh135" type="veh_passenger" depart="868.86" departLane="best" from="852995461#0" to="29981359#0"/>
    <trip id="veh136" type="veh_passenger" depart="875.30" departLane="best" from="30000952#0" to="-29980874#1"/>
    <trip id="veh137" type="veh_passenger" depart="881.73" departLane="best" from="34148315#0" to="726511411#3"/>
    <trip id="veh138" type="veh_passenger" depart="888.17" departLane="best" from="1068342551#1" to="-29980975#7"/>
    <trip id="veh139" type="veh_passenger" depart="894.61" departLane="best" from="29980975#11" to="816420282#3"/>
    <trip id="veh140" type="veh_passenger" depart="901.04" departLane="best" departSpeed="max" from="40945525#0" to="726511410#5"/>
    <trip id="veh141" type="veh_passenger" depart="907.48" departLane="best" departSpeed="max" from="-110043959#2" to="29981340#1"/>
    <trip id="veh142" type="veh_passenger" depart="913.91" departLane="best" from="-726511410#1" to="-84306102#1"/>
    <trip id="veh143" type="veh_passenger" depart="920.35" departLane="best" from="38584626#6" to="726509434#2"/>
    <trip id="veh144" type="veh_passenger" depart="926.79" departLane="best" from="38584624#1" to="-29980874#4"/>
    <trip id="veh145" type="veh_passenger" depart="933.22" departLane="best" from="731962223#0" to="223600262#5"/>
    <trip id="veh146" type="veh_passenger" depart="939.66" departLane="best" departSpeed="max" from="-29981237#1" to="-38584626#5"/>
    <trip id="veh148" type="veh_passenger" depart="952.53" departLane="best" departSpeed="max" from="-110043959#2" to="-29981306#3"/>
    <trip id="veh149" type="veh_passenger" depart="958.97" departLane="best" from="-726511409#1" to="726509434#4"/>
    <trip id="veh150" type="veh_passenger" depart="965.40" departLane="best" from="990093507" to="-726511410#4"/>
    <trip id="veh152" type="veh_passenger" depart="978.27" departLane="best" departSpeed="max" from="996549294#0" to="299438852#1"/>
    <trip id="veh153" type="veh_passenger" depart="984.71" departLane="best" departSpeed="max" from="916411017" to="-29980916#2"/>
    <trip id="veh155" type="veh_passenger" depart="997.58" departLane="best" from="990057389" to="-726509434#5"/>
    <trip id="veh156" type="veh_passenger" depart="1004.02" departLane="best" from="29980168#1" to="223099573#2"/>
    <trip id="veh157" type="veh_passenger" depart="1010.45" departLane="best" from="29980934#0" to="29394200#2"/>
    <trip id="veh159" type="veh_passenger" depart="1023.33" departLane="best" from="30067029#1" to="29981210#2"/>
    <trip id="veh160" type="veh_passenger" depart="1029.76" departLane="best" from="-1004129377#6" to="78179240"/>
    <trip id="veh161" type="veh_passenger" depart="1036.20" departLane="best" from="29981383#6" to="29981099#8"/>
    <trip id="veh162" type="veh_passenger" depart="1042.63" departLane="best" from="-975415076" to="295143807#4"/>
    <trip id="veh163" type="veh_passenger" depart="1049.07" departLane="best" from="-29981122#11" to="-997391287#1"/>
    <trip id="veh164" type="veh_passenger" depart="1055.51" departLane="best" departSpeed="max" from="-650725363#1" to="648762768#0"/>
    <trip id="veh165" type="veh_passenger" depart="1061.94" departLane="best" departSpeed="max" from="29981340#0" to="816420282#2"/>
    <trip id="veh166" type="veh_passenger" depart="1068.38" departLane="best" departSpeed="max" from="-650725363#1" to="1190889944#1"/>
    <trip id="veh168" type="veh_passenger" depart="1081.25" departLane="best" from="-29980931#0" to="203857384#1"/>
    <trip id="veh169" type="veh_passenger" depart="1087.69" departLane="best" departSpeed="max" from="916411017" to="29981122#11"/>
    <trip id="veh170" type="veh_passenger" depart="1094.12" departLane="best" from="750803290#1" to="-29980975#10"/>
    <trip id="veh171" type="veh_passenger" depart="1100.56" departLane="best" from="-488954863#0" to="29980162#2"/>
    <trip id="veh172" type="veh_passenger" depart="1106.99" departLane="best" from="-1004129377#0" to="-730852870"/>
    <trip id="veh173" type="veh_passenger" depart="1113.43" departLane="best" from="29981099#7" to="233560941#0"/>
    <trip id="veh174" type="veh_passenger" depart="1119.87" departLane="best" from="-1183718459" to="-29981359#6"/>
    <trip id="veh175" type="veh_passenger" depart="1126.30" departLane="best" from="38584626#3" to="29981122#7"/>
    <trip id="veh176" type="veh_passenger" depart="1132.74" departLane="best" departSpeed="max" from="-261463325" to="106384423#2"/>
    <trip id="veh178" type="veh_passenger" depart="1145.61" departLane="best" from="-29981122#3" to="30067029#1"/>
    <trip id="veh179" type="veh_passenger" depart="1152.05" departLane="best" from="-29981122#3" to="-1190834288#3"/>
    <trip id="veh180" type="veh_passenger" depart="1158.48" departLane="best" from="-29981395#0" to="233560941#2"/>
    <trip id="veh181" type="veh_passenger" depart="1164.92" departLane="best" from="-29980975#0" to="-295143807#6"/>
    <trip id="veh182" type="veh_passenger" depart="1171.35" departLane="best" departSpeed="max" from="1068534421#0" to="29981072#1"/>
    <trip id="veh183" type="veh_passenger" depart="1177.79" departLane="best" from="-223727787#5" to="-38584626#4"/>
    <trip id="veh185" type="veh_passenger" depart="1190.66" departLane="best" from="-29980162#2" to="-203983268#1"/>
    <trip id="veh186" type="veh_passenger" depart="1197.10" departLane="best" from="-29981099#2" to="975415075"/>
    <trip id="veh187" type="veh_passenger" depart="1203.53" departLane="best" from="-29981398#1" to="648762768#0"/>
    <trip id="veh188" type="veh_passenger" depart="1209.97" departLane="best" from="203857390#4" to="385114873"/>
    <trip id="veh189" type="veh_passenger" depart="1216.41" departLane="best" from="-29981122#13" to="996550071#0"/>
    <trip id="veh191" type="veh_passenger" depart="1229.28" departLane="best" from="-744259179#2" to="-29980970#1"/>
    <trip id="veh192" type="veh_passenger" depart="1235.71" departLane="best" departSpeed="max" from="29981340#0" to="29394195#1"/>
    <trip id="veh193" type="veh_passenger" depart="1242.15" departLane="best" from="726509433#3" to="29980162#2"/>
    <trip id="veh194" type="veh_passenger" depart="1248.59" departLane="best" from="744259180#2" to="29981356#3"/>
    <trip id="veh195" type="veh_passenger" depart="1255.02" departLane="best" from="223462581#1" to="-53879357#1"/>
    <trip id="veh196" type="veh_passenger" depart="1261.46" departLane="best" from="-29981395#2" to="29981078#1"/>
    <trip id="veh197" type="veh_passenger" depart="1267.89" departLane="best" departSpeed="max" from="30189700#0" to="29394711"/>
    <trip id="veh198" type="veh_passenger" depart="1274.33" departLane="best" from="29394205#2" to="-29981099#0"/>
    <trip id="veh199" type="veh_passenger" depart="1280.77" departLane="best" from="29981306#3" to="29981122#8"/>
    <trip id="veh200" type="veh_passenger" depart="1287.20" departLane="best" departSpeed="max" from="29981306#0" to="29394197#0"/>
    <trip id="veh202" type="veh_passenger" depart="1300.07" departLane="best" from="1068534421#1" to="-29981340#0"/>
    <trip id="veh203" type="veh_passenger" depart="1306.51" departLane="best" from="1097021899#0" to="731962224#0"/>
    <trip id="veh204" type="veh_passenger" depart="1312.95" departLane="best" from="29980874#2" to="29981122#9"/>
    <trip id="veh205" type="veh_passenger" depart="1319.38" departLane="best" from="731962210#0" to="-30000954#2"/>
    <trip id="veh206" type="veh_passenger" depart="1325.82" departLane="best" from="-744259179#3" to="29981383#3"/>
    <trip id="veh207" type="veh_passenger" depart="1332.25" departLane="best" from="726511411#1" to="89603720#1"/>
    <trip id="veh208" type="veh_passenger" depart="1338.69" departLane="best" from="1097021899#0" to="29981356#5"/>
    <trip id="veh209" type="veh_passenger" depart="1345.13" departLane="best" from="295143807#2" to="29980944#6"/>
    <trip id="veh210" type="veh_passenger" depart="1351.56" departLane="best" departSpeed="max" from="-29981237#1" to="-30000952#0"/>
    <trip id="veh211" type="veh_passenger" depart="1358.00" departLane="best" from="258375154#0" to="1190889943#2"/>
    <trip id="veh212" type="veh_passenger" depart="1364.44" departLane="best" from="-726511410#5" to="-29981122#12"/>
    <trip id="veh213" type="veh_passenger" depart="1370.87" departLane="best" from="1068342551#0" to="29981122#2"/>
    <trip id="veh214" type="veh_passenger" depart="1377.31" departLane="best" from="223099573#1" to="-29980975#0"/>
    <trip id="veh215" type="veh_passenger" depart="1383.74" departLane="best" from="-29980970#2" to="1190889943#1"/>
    <trip id="veh216" type="veh_passenger" depart="1390.18" departLane="best" departSpeed="max" from="-110043959#2" to="29981078#3"/>
    <trip id="veh217" type="veh_passenger" depart="1396.62" departLane="best" departSpeed="max" from="-29980931#2" to="223727787#6"/>
    <trip id="veh218" type="veh_passenger" depart="1403.05" departLane="best" departSpeed="max" from="-1190978817#1" to="110043959#2"/>
    <trip id="veh219" type="veh_passenger" depart="1409.49" departLane="best" from="29981201#2" to="-997381417#0"/>
    <trip id="veh220" type="veh_passenger" depart="1415.92" departLane="best" from="30189666#3" to="110043959#2"/>
    <trip id="veh221" type="veh_passenger" depart="1422.36" departLane="best" from="30010063#1" to="40945525#2"/>
    <trip id="veh222" type="veh_passenger" depart="1428.80" departLane="best" from="-30000954#2" to="-29980162#2"/>
    <trip id="veh223" type="veh_passenger" depart="1435.23" departLane="best" from="1068534421#1" to="299438852#3"/>
    <trip id="veh225" type="veh_passenger" depart="1448.10" departLane="best" from="29981099#6" to="29981383#6"/>
    <trip id="veh226" type="veh_passenger" depart="1454.54" departLane="best" departSpeed="max" from="919352324" to="-29981307#0"/>
    <trip id="veh227" type="veh_passenger" depart="1460.98" departLane="best" from="1068534421#2" to="-29981107#2"/>
    <trip id="veh228" type="veh_passenger" depart="1467.41" departLane="best" from="29980916#1" to="29981099#8"/>
    <trip id="veh229" type="veh_passenger" depart="1473.85" departLane="best" from="-29980157" to="29981398#0"/>
    <trip id="veh230" type="veh_passenger" depart="1480.28" departLane="best" from="29981262#1" to="-30000954#2"/>
    <trip id="veh231" type="veh_passenger" depart="1486.72" departLane="best" departSpeed="max" from="-29981072#1" to="29980968#4"/>
    <trip id="veh232" type="veh_passenger" depart="1493.16" departLane="best" from="30000952#0" to="-29980916#0"/>
    <trip id="veh233" type="veh_passenger" depart="1499.59" departLane="best" from="53879364#0" to="990068611#0"/>
    <trip id="veh234" type="veh_passenger" depart="1506.03" departLane="best" from="29980168#1" to="1190889944#1"/>
    <trip id="veh235" type="veh_passenger" depart="1512.46" departLane="best" departSpeed="max" from="-650725363#1" to="29981122#11"/>
    <trip id="veh236" type="veh_passenger" depart="1518.90" departLane="best" from="975415075" to="258375155#0"/>
    <trip id="veh238" type="veh_passenger" depart="1531.77" departLane="best" from="-29980162#0" to="30189666#0"/>
    <trip id="veh239" type="veh_passenger" depart="1538.21" departLane="best" from="726511410#5" to="29980944#6"/>
    <trip id="veh240" type="veh_passenger" depart="1544.64" departLane="best" from="-29980874#2" to="996549291#1"/>
    <trip id="veh241" type="veh_passenger" depart="1551.08" departLane="best" from="35742158#2" to="106384423#2"/>
    <trip id="veh242" type="veh_passenger" depart="1557.52" departLane="best" from="1155385176" to="-1068534421#2"/>
    <trip id="veh243" type="veh_passenger" depart="1563.95" departLane="best" from="117178131" to="1055065714#0"/>
    <trip id="veh244" type="veh_passenger" depart="1570.39" departLane="best" from="726511410#4" to="-38584626#8"/>
    <trip id="veh245" type="veh_passenger" depart="1576.82" departLane="best" from="-29980162#2" to="975415077"/>
    <trip id="veh247" type="veh_passenger" depart="1589.70" departLane="best" from="29981306#1" to="223099573#2"/>
    <trip id="veh248" type="veh_passenger" depart="1596.13" departLane="best" from="29981356#5" to="990093507"/>
    <trip id="veh249" type="veh_passenger" depart="1602.57" departLane="best" departSpeed="max" from="-35742163" to="-38584626#1"/>
    <trip id="veh250" type="veh_passenger" depart="1609.00" departLane="best" from="29394205#1" to="117178128#0"/>
    <trip id="veh251" type="veh_passenger" depart="1615.44" departLane="best" from="258375154#0" to="-29981306#3"/>
    <trip id="veh252" type="veh_passenger" depart="1621.88" departLane="best" departSpeed="max" from="-35742163" to="650725363#1"/>
    <trip id="veh253" type="veh_passenger" depart="1628.31" departLane="best" departSpeed="max" from="-744259179#0" to="38584626#4"/>
    <trip id="veh254" type="veh_passenger" depart="1634.75" departLane="best" from="223099573#0" to="29980968#4"/>
    <trip id="veh255" type="veh_passenger" depart="1641.18" departLane="best" from="102593675" to="1190889943#2"/>
    <trip id="veh256" type="veh_passenger" depart="1647.62" departLane="best" from="726511410#5" to="-29981306#0"/>
    <trip id="veh257" type="veh_passenger" depart="1654.06" departLane="best" from="-29981201#3" to="35742163"/>
    <trip id="veh258" type="veh_passenger" depart="1660.49" departLane="best" from="726511411#5" to="726511410#5"/>
    <trip id="veh259" type="veh_passenger" depart="1666.93" departLane="best" from="-29981279#1" to="726511410#0"/>
    <trip id="veh261" type="veh_passenger" depart="1679.80" departLane="best" departSpeed="max" from="-261463325" to="29981237#1"/>